<?xml version="1.0" encoding="UTF-8"?>

<!-- generated on 2024-12-19 23:20:02 by Eclipse SUMO netedit Version 1.21.0
<neteditConfiguration xmlns:xsi="http://www.w3.org/2001/XMLSchema-instance" xsi:noNamespaceSchemaLocation="http://sumo.dlr.de/xsd/neteditConfiguration.xsd">

    <input>
        <sumo-net-file value="C:\Users\zelal\Repositories\Intelligent-Traffic-Agent\RandomNetwork\3LaneNetwork.net.xml"/>
    </input>

    <output>
        <output-file value="C:\Users\zelal\Repositories\Intelligent-Traffic-Agent\RandomNetwork\3LaneNetwork.net.xml"/>
    </output>

    <processing>
        <geometry.min-radius.fix.railways value="false"/>
        <geometry.max-grade.fix value="false"/>
        <offset.disable-normalization value="true"/>
        <lefthand value="0"/>
    </processing>

    <junctions>
        <no-turnarounds value="true"/>
        <junctions.corner-detail value="5"/>
        <junctions.limit-turn-speed value="5.50"/>
        <rectangular-lane-cut value="0"/>
    </junctions>

    <pedestrian>
        <walkingareas value="0"/>
    </pedestrian>

</neteditConfiguration>
-->

<net version="1.20" junctionCornerDetail="5" limitTurnSpeed="5.50" xmlns:xsi="http://www.w3.org/2001/XMLSchema-instance" xsi:noNamespaceSchemaLocation="http://sumo.dlr.de/xsd/net_file.xsd">

    <location netOffset="892.70,1257.99" convBoundary="0.00,0.00,2083.38,1978.15" origBoundary="-892.70,-1257.99,1190.68,720.16" projParameter="!"/>

    <edge id=":1_0" function="internal">
        <lane id=":1_0_0" index="0" speed="13.89" length="24.29" shape="884.92,1272.24 884.82,1265.25 884.57,1260.45 883.83,1255.71 882.29,1248.89"/>
        <lane id=":1_0_1" index="1" speed="13.89" length="24.29" shape="888.12,1272.19 888.01,1264.99 887.75,1260.04 886.99,1255.17 885.40,1248.15"/>
        <lane id=":1_0_2" index="2" speed="13.89" length="24.29" shape="891.32,1272.14 891.21,1264.73 890.93,1259.64 890.15,1254.62 888.51,1247.40"/>
    </edge>
    <edge id=":1_3" function="internal">
        <lane id=":1_3_0" index="0" speed="10.81" length="5.91" shape="891.32,1272.14 891.94,1266.26"/>
        <lane id=":1_3_1" index="1" speed="10.29" length="4.99" shape="891.32,1272.14 891.96,1267.19"/>
    </edge>
    <edge id=":1_5" function="internal">
        <lane id=":1_5_0" index="0" speed="3.65" length="1.44" shape="891.32,1272.14 892.10,1270.93"/>
    </edge>
    <edge id=":1_15" function="internal">
        <lane id=":1_15_0" index="0" speed="10.81" length="21.94" shape="891.94,1266.26 892.19,1263.86 895.09,1258.03 900.03,1254.65 907.00,1253.73"/>
    </edge>
    <edge id=":1_16" function="internal">
        <lane id=":1_16_0" index="0" speed="10.29" length="20.13" shape="891.96,1267.19 892.20,1265.26 895.09,1260.43 899.98,1257.65 906.88,1256.93"/>
    </edge>
    <edge id=":1_17" function="internal">
        <lane id=":1_17_0" index="0" speed="3.65" length="3.23" shape="892.10,1270.93 892.90,1270.52 893.70,1270.91 894.52,1272.09"/>
    </edge>
    <edge id=":1_6" function="internal">
        <lane id=":1_6_0" index="0" speed="6.39" length="9.04" shape="906.52,1266.52 904.03,1266.78 902.28,1267.78 901.24,1269.52 900.92,1271.99"/>
    </edge>
    <edge id=":1_7" function="internal">
        <lane id=":1_7_0" index="0" speed="12.43" length="28.26" shape="906.64,1263.32 898.65,1262.12 892.45,1259.19 888.03,1254.53 885.40,1248.15"/>
        <lane id=":1_7_1" index="1" speed="11.50" length="24.08" shape="906.76,1260.12 899.87,1259.11 894.53,1256.65 890.75,1252.75 888.51,1247.40"/>
    </edge>
    <edge id=":1_9" function="internal">
        <lane id=":1_9_0" index="0" speed="3.65" length="2.34" shape="906.76,1260.12 905.59,1259.28 905.22,1258.47"/>
    </edge>
    <edge id=":1_18" function="internal">
        <lane id=":1_18_0" index="0" speed="3.65" length="2.34" shape="905.22,1258.47 905.65,1257.68 906.88,1256.93"/>
    </edge>
    <edge id=":1_10" function="internal">
        <lane id=":1_10_0" index="0" speed="8.11" length="11.54" shape="897.85,1245.16 898.88,1247.39 900.77,1249.03 903.52,1250.08 907.12,1250.53"/>
    </edge>
    <edge id=":1_11" function="internal">
        <lane id=":1_11_0" index="0" speed="13.89" length="26.41" shape="897.85,1245.16 899.63,1252.99 900.49,1258.44 900.79,1263.95 900.92,1271.99"/>
        <lane id=":1_11_1" index="1" speed="13.89" length="26.41" shape="894.73,1245.90 896.47,1253.53 897.30,1258.84 897.60,1264.21 897.72,1272.04"/>
        <lane id=":1_11_2" index="2" speed="13.89" length="26.41" shape="891.62,1246.65 893.31,1254.08 894.12,1259.24 894.40,1264.47 894.52,1272.09"/>
    </edge>
    <edge id=":1_14" function="internal">
        <lane id=":1_14_0" index="0" speed="3.65" length="1.44" shape="891.62,1246.65 891.13,1248.00"/>
    </edge>
    <edge id=":1_19" function="internal">
        <lane id=":1_19_0" index="0" speed="3.65" length="3.23" shape="891.13,1248.00 890.44,1248.58 889.57,1248.38 888.51,1247.40"/>
    </edge>
    <edge id=":1013_0" function="internal">
        <lane id=":1013_0_0" index="0" speed="3.65" length="4.67" shape="2023.84,795.50 2025.21,795.95 2025.81,796.61 2025.64,797.49 2024.70,798.58"/>
    </edge>
    <edge id=":1019_0" function="internal">
        <lane id=":1019_0_0" index="0" speed="3.65" length="4.67" shape="2082.46,936.32 2083.90,936.29 2084.69,936.71 2084.82,937.60 2084.30,938.94"/>
    </edge>
    <edge id=":1030_0" function="internal">
        <lane id=":1030_0_0" index="0" speed="3.65" length="4.67" shape="9.06,1155.15 7.63,1155.35 6.80,1155.01 6.57,1154.15 6.94,1152.75"/>
    </edge>
    <edge id=":1040_0" function="internal">
        <lane id=":1040_0_0" index="0" speed="3.65" length="4.67" shape="-1.15,845.20 -1.41,843.78 -1.11,842.94 -0.26,842.67 1.15,842.98"/>
    </edge>
    <edge id=":1044_0" function="internal">
        <lane id=":1044_0_0" index="0" speed="3.65" length="4.67" shape="35.22,1424.88 33.98,1424.15 33.53,1423.37 33.89,1422.55 35.04,1421.68"/>
    </edge>
    <edge id=":1048_0" function="internal">
        <lane id=":1048_0_0" index="0" speed="3.65" length="4.67" shape="341.35,1669.99 341.04,1671.40 340.44,1672.06 339.55,1671.98 338.37,1671.15"/>
    </edge>
    <edge id=":1108_0" function="internal">
        <lane id=":1108_0_0" index="0" speed="3.65" length="4.67" shape="72.77,1627.00 71.40,1627.45 70.52,1627.27 70.14,1626.46 70.25,1625.02"/>
    </edge>
    <edge id=":14_0" function="internal">
        <lane id=":14_0_0" index="0" speed="13.89" length="22.37" shape="730.18,782.22 727.78,776.46 726.01,772.49 723.57,769.01 719.16,764.72"/>
        <lane id=":14_0_1" index="1" speed="13.89" length="22.37" shape="733.11,780.93 730.54,774.79 728.62,770.58 725.99,766.89 721.28,762.32"/>
        <lane id=":14_0_2" index="2" speed="13.89" length="22.37" shape="736.03,779.63 733.29,773.12 731.23,768.67 728.41,764.76 723.40,759.92"/>
    </edge>
    <edge id=":14_3" function="internal">
        <lane id=":14_3_0" index="0" speed="10.74" length="8.18" shape="736.03,779.63 733.48,771.85"/>
        <lane id=":14_3_1" index="1" speed="10.13" length="5.61" shape="736.03,779.63 734.51,774.23"/>
    </edge>
    <edge id=":14_5" function="internal">
        <lane id=":14_5_0" index="0" speed="3.65" length="1.44" shape="736.03,779.63 736.28,778.21"/>
    </edge>
    <edge id=":14_15" function="internal">
        <lane id=":14_15_0" index="0" speed="10.74" length="22.23" shape="733.48,771.85 733.23,771.09 733.55,764.44 737.47,759.61 745.44,756.51"/>
    </edge>
    <edge id=":14_16" function="internal">
        <lane id=":14_16_0" index="0" speed="10.13" length="21.30" shape="734.51,774.23 733.97,772.32 734.97,766.55 739.03,762.32 746.13,759.63"/>
    </edge>
    <edge id=":14_17" function="internal">
        <lane id=":14_17_0" index="0" speed="3.65" length="3.23" shape="736.28,778.21 736.85,777.52 737.74,777.56 738.96,778.33"/>
    </edge>
    <edge id=":14_6" function="internal">
        <lane id=":14_6_0" index="0" speed="6.12" length="9.06" shape="748.21,769.01 745.82,769.91 744.45,771.33 744.12,773.28 744.81,775.74"/>
    </edge>
    <edge id=":14_7" function="internal">
        <lane id=":14_7_0" index="0" speed="13.89" length="27.42" shape="747.52,765.88 739.22,767.13 732.09,766.96 726.11,765.35 721.28,762.32"/>
        <lane id=":14_7_1" index="1" speed="13.89" length="24.41" shape="746.82,762.76 739.30,763.92 732.89,763.84 727.59,762.50 723.40,759.92"/>
    </edge>
    <edge id=":14_9" function="internal">
        <lane id=":14_9_0" index="0" speed="3.65" length="4.67" shape="746.82,762.76 745.48,762.24 744.92,761.54 745.13,760.67 746.13,759.63"/>
    </edge>
    <edge id=":14_10" function="internal">
        <lane id=":14_10_0" index="0" speed="11.37" length="15.43" shape="729.75,752.72 732.04,753.96 735.31,754.48 739.54,754.29 744.75,753.39"/>
    </edge>
    <edge id=":14_11" function="internal">
        <lane id=":14_11_0" index="0" speed="13.89" length="26.52" shape="729.75,752.72 735.67,758.39 739.06,762.93 741.55,768.12 744.81,775.74"/>
        <lane id=":14_11_1" index="1" speed="13.89" length="26.52" shape="727.64,755.12 733.25,760.51 736.45,764.84 738.80,769.79 741.88,777.04"/>
        <lane id=":14_11_2" index="2" speed="13.89" length="26.52" shape="725.52,757.52 730.83,762.64 733.84,766.75 736.05,771.46 738.96,778.33"/>
    </edge>
    <edge id=":14_14" function="internal">
        <lane id=":14_14_0" index="0" speed="3.65" length="1.44" shape="725.52,757.52 725.89,758.91"/>
    </edge>
    <edge id=":14_18" function="internal">
        <lane id=":14_18_0" index="0" speed="3.65" length="3.23" shape="725.89,758.91 725.66,759.78 724.83,760.11 723.40,759.92"/>
    </edge>
    <edge id=":18_0" function="internal">
        <lane id=":18_0_0" index="0" speed="6.86" length="13.40" shape="963.17,734.06 961.05,732.53 958.76,732.96 956.32,735.34 953.72,739.68"/>
    </edge>
    <edge id=":18_1" function="internal">
        <lane id=":18_1_0" index="0" speed="13.89" length="33.46" shape="965.65,732.04 959.97,726.95 952.95,723.98 944.58,723.11 934.86,724.36"/>
    </edge>
    <edge id=":18_2" function="internal">
        <lane id=":18_2_0" index="0" speed="13.89" length="39.98" shape="965.65,732.04 958.61,724.38 951.57,718.08 944.33,711.97 936.66,704.88"/>
        <lane id=":18_2_1" index="1" speed="13.89" length="39.98" shape="968.13,730.01 961.06,722.32 953.95,715.94 946.63,709.74 938.93,702.62"/>
        <lane id=":18_2_2" index="2" speed="13.89" length="39.98" shape="968.13,730.01 961.41,721.97 955.08,714.81 948.54,707.84 941.20,700.36"/>
    </edge>
    <edge id=":18_5" function="internal">
        <lane id=":18_5_0" index="0" speed="13.89" length="33.90" shape="968.13,730.01 963.16,722.27 960.81,714.42 961.06,706.47 963.92,698.41"/>
    </edge>
    <edge id=":18_6" function="internal">
        <lane id=":18_6_0" index="0" speed="3.65" length="4.67" shape="968.13,730.01 967.99,728.58 968.36,727.76 969.23,727.57 970.61,727.99"/>
    </edge>
    <edge id=":18_7" function="internal">
        <lane id=":18_7_0" index="0" speed="11.99" length="22.73" shape="972.46,702.80 970.61,708.11 970.51,713.40 972.16,718.68 975.57,723.95"/>
    </edge>
    <edge id=":18_8" function="internal">
        <lane id=":18_8_0" index="0" speed="13.89" length="41.39" shape="972.46,702.80 953.72,739.68"/>
        <lane id=":18_8_1" index="1" speed="13.89" length="41.39" shape="969.61,701.34 950.87,738.24"/>
        <lane id=":18_8_2" index="2" speed="13.89" length="41.39" shape="966.77,699.87 948.01,736.79"/>
    </edge>
    <edge id=":18_11" function="internal">
        <lane id=":18_11_0" index="0" speed="13.89" length="6.67" shape="966.77,699.87 963.13,705.47"/>
    </edge>
    <edge id=":18_12" function="internal">
        <lane id=":18_12_0" index="0" speed="10.58" length="3.74" shape="966.77,699.87 964.46,702.83"/>
    </edge>
    <edge id=":18_13" function="internal">
        <lane id=":18_13_0" index="0" speed="3.65" length="1.44" shape="966.77,699.87 965.51,700.58"/>
    </edge>
    <edge id=":18_36" function="internal">
        <lane id=":18_36_0" index="0" speed="13.89" length="34.90" shape="963.13,705.47 960.99,708.77 953.74,715.82 945.03,721.02 934.86,724.36"/>
    </edge>
    <edge id=":18_37" function="internal">
        <lane id=":18_37_0" index="0" speed="10.58" length="27.95" shape="964.46,702.83 961.44,706.70 955.31,708.63 948.51,706.30 941.20,700.36"/>
    </edge>
    <edge id=":18_38" function="internal">
        <lane id=":18_38_0" index="0" speed="3.65" length="3.23" shape="965.51,700.58 964.61,700.57 964.08,699.84 963.92,698.41"/>
    </edge>
    <edge id=":18_14" function="internal">
        <lane id=":18_14_0" index="0" speed="6.84" length="12.49" shape="947.99,693.58 951.41,696.48 954.25,697.77 956.53,697.44 958.23,695.49"/>
    </edge>
    <edge id=":18_15" function="internal">
        <lane id=":18_15_0" index="0" speed="13.89" length="40.82" shape="947.99,693.58 955.44,701.17 962.20,708.39 968.75,715.79 975.57,723.95"/>
        <lane id=":18_15_1" index="1" speed="13.89" length="40.82" shape="945.73,695.84 953.14,703.39 959.83,710.53 966.31,717.85 973.09,725.97"/>
        <lane id=":18_15_2" index="2" speed="13.89" length="40.82" shape="945.73,695.84 952.75,703.71 958.59,711.54 964.21,719.56 970.61,727.99"/>
    </edge>
    <edge id=":18_18" function="internal">
        <lane id=":18_18_0" index="0" speed="13.89" length="45.97" shape="945.73,695.84 952.65,705.11 955.82,715.27 955.22,726.31 950.87,738.24"/>
        <lane id=":18_18_1" index="1" speed="13.89" length="41.93" shape="943.46,698.10 949.74,706.52 952.59,715.78 952.01,725.87 948.01,736.79"/>
    </edge>
    <edge id=":18_20" function="internal">
        <lane id=":18_20_0" index="0" speed="9.92" length="32.02" shape="943.46,698.10 948.04,705.43 947.56,712.22 942.70,717.74 934.17,721.24"/>
    </edge>
    <edge id=":18_21" function="internal">
        <lane id=":18_21_0" index="0" speed="3.65" length="4.67" shape="943.46,698.10 943.74,699.51 943.46,700.36 942.61,700.64 941.20,700.36"/>
    </edge>
    <edge id=":18_22" function="internal">
        <lane id=":18_22_0" index="0" speed="6.12" length="11.28" shape="932.09,711.86 935.92,710.64 937.96,709.07 938.21,707.15 936.66,704.88"/>
    </edge>
    <edge id=":18_23" function="internal">
        <lane id=":18_23_0" index="0" speed="13.89" length="33.41" shape="932.09,711.86 942.93,708.93 951.37,705.47 957.42,701.48 961.07,696.95"/>
        <lane id=":18_23_1" index="1" speed="13.89" length="36.20" shape="932.79,714.99 944.30,711.83 953.33,708.02 959.87,703.54 963.92,698.41"/>
    </edge>
    <edge id=":18_25" function="internal">
        <lane id=":18_25_0" index="0" speed="13.89" length="44.09" shape="932.79,714.99 945.26,713.47 956.14,714.79 965.41,718.96 973.09,725.97"/>
        <lane id=":18_25_1" index="1" speed="13.89" length="40.54" shape="933.48,718.11 945.04,716.68 955.08,717.85 963.60,721.62 970.61,727.99"/>
    </edge>
    <edge id=":18_27" function="internal">
        <lane id=":18_27_0" index="0" speed="9.46" length="30.87" shape="933.48,718.11 942.00,718.18 947.78,721.98 950.04,728.52 948.01,736.79"/>
    </edge>
    <edge id=":18_28" function="internal">
        <lane id=":18_28_0" index="0" speed="3.65" length="4.67" shape="933.48,718.11 934.82,718.63 935.39,719.33 935.17,720.20 934.17,721.24"/>
    </edge>
    <edge id=":18_29" function="internal">
        <lane id=":18_29_0" index="0" speed="5.53" length="9.48" shape="939.44,732.47 940.44,729.69 940.13,727.93 938.50,727.20 935.56,727.49"/>
    </edge>
    <edge id=":18_30" function="internal">
        <lane id=":18_30_0" index="0" speed="13.50" length="31.98" shape="939.44,732.47 943.09,723.30 944.22,715.26 942.84,708.37 938.93,702.62"/>
    </edge>
    <edge id=":18_31" function="internal">
        <lane id=":18_31_0" index="0" speed="13.89" length="41.46" shape="939.44,732.47 958.23,695.49"/>
        <lane id=":18_31_1" index="1" speed="13.89" length="41.46" shape="942.29,733.91 961.07,696.95"/>
        <lane id=":18_31_2" index="2" speed="13.89" length="41.46" shape="945.15,735.35 963.92,698.41"/>
    </edge>
    <edge id=":18_34" function="internal">
        <lane id=":18_34_0" index="0" speed="10.51" length="6.31" shape="945.15,735.35 948.62,730.09"/>
    </edge>
    <edge id=":18_35" function="internal">
        <lane id=":18_35_0" index="0" speed="3.65" length="1.44" shape="945.15,735.35 946.41,734.64"/>
    </edge>
    <edge id=":18_39" function="internal">
        <lane id=":18_39_0" index="0" speed="10.51" length="27.04" shape="948.62,730.09 950.62,727.05 956.88,722.46 963.64,722.48 970.61,727.99"/>
    </edge>
    <edge id=":18_40" function="internal">
        <lane id=":18_40_0" index="0" speed="3.65" length="3.23" shape="946.41,734.64 947.30,734.65 947.83,735.36 948.01,736.79"/>
    </edge>
    <edge id=":196_0" function="internal">
        <lane id=":196_0_0" index="0" speed="13.89" length="34.79" shape="1604.18,1087.77 1594.41,1087.64 1586.63,1088.38 1579.43,1090.89 1571.38,1096.08"/>
    </edge>
    <edge id=":196_1" function="internal">
        <lane id=":196_1_0" index="0" speed="13.89" length="43.06" shape="1604.18,1087.77 1592.93,1086.98 1581.86,1084.95 1571.28,1081.42 1561.47,1076.09"/>
        <lane id=":196_1_1" index="1" speed="13.89" length="43.06" shape="1604.26,1084.57 1593.27,1083.86 1582.80,1082.03 1572.80,1078.68 1563.27,1073.45"/>
        <lane id=":196_1_2" index="2" speed="13.89" length="43.06" shape="1604.33,1081.37 1593.62,1080.75 1583.73,1079.10 1574.33,1075.95 1565.06,1070.80"/>
    </edge>
    <edge id=":196_4" function="internal">
        <lane id=":196_4_0" index="0" speed="9.47" length="30.84" shape="1604.33,1081.37 1596.08,1079.28 1591.37,1074.23 1590.72,1067.36 1594.63,1059.79"/>
    </edge>
    <edge id=":196_5" function="internal">
        <lane id=":196_5_0" index="0" speed="3.65" length="4.67" shape="1604.33,1081.37 1603.15,1080.54 1602.77,1079.73 1603.19,1078.94 1604.41,1078.17"/>
    </edge>
    <edge id=":196_6" function="internal">
        <lane id=":196_6_0" index="0" speed="5.53" length="9.47" shape="1601.96,1065.99 1600.35,1068.45 1600.24,1070.24 1601.65,1071.35 1604.56,1071.77"/>
    </edge>
    <edge id=":196_7" function="internal">
        <lane id=":196_7_0" index="0" speed="13.89" length="42.29" shape="1601.96,1065.99 1594.77,1074.25 1587.51,1081.92 1579.83,1089.15 1571.38,1096.08"/>
        <lane id=":196_7_1" index="1" speed="13.89" length="42.29" shape="1599.52,1063.92 1592.41,1072.10 1585.32,1079.61 1577.81,1086.68 1569.44,1093.54"/>
        <lane id=":196_7_2" index="2" speed="13.89" length="42.29" shape="1597.07,1061.86 1590.04,1069.96 1583.13,1077.31 1575.79,1084.21 1567.50,1090.99"/>
    </edge>
    <edge id=":196_10" function="internal">
        <lane id=":196_10_0" index="0" speed="13.15" length="7.70" shape="1597.07,1061.86 1591.52,1067.20"/>
    </edge>
    <edge id=":196_11" function="internal">
        <lane id=":196_11_0" index="0" speed="3.65" length="1.44" shape="1597.07,1061.86 1595.69,1062.26"/>
    </edge>
    <edge id=":196_24" function="internal">
        <lane id=":196_24_0" index="0" speed="13.15" length="29.17" shape="1591.52,1067.20 1588.90,1069.72 1580.84,1073.83 1572.90,1074.19 1565.06,1070.80"/>
    </edge>
    <edge id=":196_25" function="internal">
        <lane id=":196_25_0" index="0" speed="3.65" length="3.23" shape="1595.69,1062.26 1594.82,1062.05 1594.46,1061.23 1594.63,1059.79"/>
    </edge>
    <edge id=":196_12" function="internal">
        <lane id=":196_12_0" index="0" speed="10.39" length="22.65" shape="1570.45,1062.85 1574.81,1064.53 1579.47,1063.90 1584.45,1060.94 1589.74,1055.66"/>
    </edge>
    <edge id=":196_13" function="internal">
        <lane id=":196_13_0" index="0" speed="13.89" length="37.71" shape="1570.45,1062.85 1578.91,1067.74 1586.54,1070.33 1594.65,1071.41 1604.56,1071.77"/>
        <lane id=":196_13_1" index="1" speed="13.89" length="37.71" shape="1568.65,1065.50 1577.38,1070.48 1585.60,1073.26 1594.31,1074.52 1604.49,1074.97"/>
        <lane id=":196_13_2" index="2" speed="13.89" length="37.71" shape="1566.86,1068.15 1575.86,1073.21 1584.67,1076.18 1593.96,1077.64 1604.41,1078.17"/>
    </edge>
    <edge id=":196_16" function="internal">
        <lane id=":196_16_0" index="0" speed="10.04" length="28.61" shape="1566.86,1068.15 1572.97,1073.69 1575.12,1079.35 1573.30,1085.11 1567.50,1090.99"/>
    </edge>
    <edge id=":196_17" function="internal">
        <lane id=":196_17_0" index="0" speed="3.65" length="4.67" shape="1566.86,1068.15 1567.40,1069.48 1567.29,1070.37 1566.51,1070.81 1565.06,1070.80"/>
    </edge>
    <edge id=":196_18" function="internal">
        <lane id=":196_18_0" index="0" speed="5.92" length="9.10" shape="1561.68,1083.36 1563.52,1081.49 1564.10,1079.66 1563.42,1077.86 1561.47,1076.09"/>
    </edge>
    <edge id=":196_19" function="internal">
        <lane id=":196_19_0" index="0" speed="13.89" length="40.21" shape="1561.68,1083.36 1569.73,1076.81 1576.55,1070.40 1582.95,1063.54 1589.74,1055.66"/>
        <lane id=":196_19_1" index="1" speed="13.89" length="40.21" shape="1563.62,1085.91 1571.75,1079.27 1578.74,1072.70 1585.31,1065.68 1592.18,1057.73"/>
        <lane id=":196_19_2" index="2" speed="13.89" length="40.21" shape="1565.56,1088.45 1573.77,1081.74 1580.94,1075.00 1587.68,1067.82 1594.63,1059.79"/>
    </edge>
    <edge id=":196_22" function="internal">
        <lane id=":196_22_0" index="0" speed="13.89" length="5.17" shape="1565.56,1088.45 1569.97,1085.75"/>
    </edge>
    <edge id=":196_23" function="internal">
        <lane id=":196_23_0" index="0" speed="3.65" length="1.44" shape="1565.56,1088.45 1567.00,1088.36"/>
    </edge>
    <edge id=":196_26" function="internal">
        <lane id=":196_26_0" index="0" speed="13.89" length="35.86" shape="1569.97,1085.75 1574.55,1082.95 1583.83,1079.76 1593.69,1078.35 1604.41,1078.17"/>
    </edge>
    <edge id=":196_27" function="internal">
        <lane id=":196_27_0" index="0" speed="3.65" length="3.23" shape="1567.00,1088.36 1567.80,1088.75 1567.97,1089.63 1567.50,1090.99"/>
    </edge>
    <edge id=":2_0" function="internal">
        <lane id=":2_0_0" index="0" speed="13.89" length="30.93" shape="819.18,986.06 816.81,977.44 814.58,971.66 811.86,966.05 808.05,957.92"/>
        <lane id=":2_0_1" index="1" speed="13.89" length="30.93" shape="822.29,985.31 819.90,976.60 817.60,970.64 814.81,964.84 810.97,956.62"/>
        <lane id=":2_0_2" index="2" speed="13.89" length="30.93" shape="825.40,984.56 822.98,975.77 820.61,969.62 817.77,963.63 813.90,955.33"/>
    </edge>
    <edge id=":2_3" function="internal">
        <lane id=":2_3_0" index="0" speed="13.89" length="6.09" shape="825.40,984.56 824.47,978.55"/>
        <lane id=":2_3_1" index="1" speed="13.89" length="4.43" shape="825.40,984.56 824.92,980.16"/>
    </edge>
    <edge id=":2_5" function="internal">
        <lane id=":2_5_0" index="0" speed="3.65" length="1.44" shape="825.40,984.56 825.90,983.21"/>
    </edge>
    <edge id=":2_17" function="internal">
        <lane id=":2_17_0" index="0" speed="13.89" length="27.17" shape="824.47,978.55 823.98,975.37 824.78,968.35 827.50,961.56 831.84,953.03"/>
    </edge>
    <edge id=":2_18" function="internal">
        <lane id=":2_18_0" index="0" speed="13.89" length="28.25" shape="824.92,980.16 824.43,975.59 826.21,969.07 829.91,962.78 834.70,954.47"/>
    </edge>
    <edge id=":2_19" function="internal">
        <lane id=":2_19_0" index="0" speed="3.65" length="3.23" shape="825.90,983.21 826.58,982.63 827.45,982.84 828.51,983.82"/>
    </edge>
    <edge id=":2_6" function="internal">
        <lane id=":2_6_0" index="0" speed="13.89" length="28.32" shape="843.27,958.80 839.15,965.47 835.80,970.19 834.04,975.08 834.73,982.32"/>
        <lane id=":2_6_1" index="1" speed="13.89" length="28.32" shape="840.42,957.36 836.02,964.63 832.54,969.81 830.80,975.18 831.62,983.07"/>
        <lane id=":2_6_2" index="2" speed="13.89" length="28.32" shape="837.56,955.91 832.88,963.79 829.28,969.43 827.55,975.28 828.51,983.82"/>
    </edge>
    <edge id=":2_9" function="internal">
        <lane id=":2_9_0" index="0" speed="10.00" length="34.70" shape="837.56,955.91 831.44,963.49 824.02,966.28 816.72,964.07 810.97,956.62"/>
        <lane id=":2_9_1" index="1" speed="9.46" length="30.88" shape="837.56,955.91 832.11,962.47 825.51,964.53 819.01,962.14 813.90,955.33"/>
    </edge>
    <edge id=":2_11" function="internal">
        <lane id=":2_11_0" index="0" speed="3.65" length="2.34" shape="837.56,955.91 836.30,956.63 835.41,956.62"/>
    </edge>
    <edge id=":2_20" function="internal">
        <lane id=":2_20_0" index="0" speed="3.65" length="2.34" shape="835.41,956.62 834.88,955.91 834.70,954.47"/>
    </edge>
    <edge id=":2_12" function="internal">
        <lane id=":2_12_0" index="0" speed="5.53" length="9.49" shape="822.67,951.44 824.19,953.98 825.75,954.85 827.35,954.06 828.99,951.59"/>
    </edge>
    <edge id=":2_13" function="internal">
        <lane id=":2_13_0" index="0" speed="13.89" length="32.66" shape="822.67,951.44 826.63,960.00 829.67,966.55 832.23,973.27 834.73,982.32"/>
        <lane id=":2_13_1" index="1" speed="13.89" length="32.66" shape="819.75,952.73 823.68,961.21 826.65,967.57 829.14,974.10 831.62,983.07"/>
        <lane id=":2_13_2" index="2" speed="13.89" length="32.66" shape="816.82,954.03 820.72,962.42 823.63,968.60 826.06,974.94 828.51,983.82"/>
    </edge>
    <edge id=":2_16" function="internal">
        <lane id=":2_16_0" index="0" speed="3.65" length="1.44" shape="816.82,954.03 816.58,955.45"/>
    </edge>
    <edge id=":2_21" function="internal">
        <lane id=":2_21_0" index="0" speed="3.65" length="3.23" shape="816.58,955.45 816.01,956.14 815.12,956.10 813.90,955.33"/>
    </edge>
    <edge id=":20_0" function="internal">
        <lane id=":20_0_0" index="0" speed="3.90" length="2.79" shape="674.66,1477.04 673.89,1476.93 673.30,1477.11 672.88,1477.57 672.64,1478.30"/>
        <lane id=":20_0_1" index="1" speed="6.07" length="8.36" shape="675.54,1473.96 673.23,1473.65 671.45,1474.18 670.21,1475.55 669.49,1477.76"/>
        <lane id=":20_0_2" index="2" speed="7.65" length="13.93" shape="676.42,1470.89 672.57,1470.36 669.61,1471.24 667.53,1473.53 666.33,1477.21"/>
    </edge>
    <edge id=":20_3" function="internal">
        <lane id=":20_3_0" index="0" speed="11.11" length="30.65" shape="656.87,1475.57 659.51,1467.47 664.09,1462.44 670.60,1460.51 679.05,1461.66"/>
        <lane id=":20_3_1" index="1" speed="10.09" length="25.07" shape="660.03,1476.12 662.19,1469.49 665.93,1465.38 671.26,1463.79 678.17,1464.73"/>
        <lane id=":20_3_2" index="2" speed="8.95" length="19.50" shape="663.18,1476.67 664.86,1471.51 667.77,1468.31 671.92,1467.08 677.29,1467.81"/>
    </edge>
    <edge id=":204_0" function="internal">
        <lane id=":204_0_0" index="0" speed="8.35" length="10.50" shape="381.54,912.80 379.54,911.77 377.22,911.52 374.58,912.03 371.61,913.31"/>
    </edge>
    <edge id=":204_1" function="internal">
        <lane id=":204_1_0" index="0" speed="13.89" length="24.30" shape="381.54,912.80 375.62,907.96 372.10,903.99 369.56,899.26 366.63,892.15"/>
        <lane id=":204_1_1" index="1" speed="13.89" length="24.30" shape="383.49,910.26 377.97,905.74 374.68,902.02 372.33,897.60 369.60,890.95"/>
        <lane id=":204_1_2" index="2" speed="13.89" length="24.30" shape="385.44,907.72 380.31,903.51 377.27,900.05 375.10,895.93 372.56,889.74"/>
    </edge>
    <edge id=":204_4" function="internal">
        <lane id=":204_4_0" index="0" speed="3.65" length="1.44" shape="385.44,907.72 384.97,906.36"/>
    </edge>
    <edge id=":204_15" function="internal">
        <lane id=":204_15_0" index="0" speed="3.65" length="3.23" shape="384.97,906.36 385.15,905.48 385.95,905.09 387.39,905.19"/>
    </edge>
    <edge id=":204_5" function="internal">
        <lane id=":204_5_0" index="0" speed="13.89" length="19.16" shape="381.46,886.14 383.40,890.93 385.04,894.14 387.35,896.85 391.29,900.11"/>
        <lane id=":204_5_1" index="1" speed="13.89" length="19.16" shape="378.49,887.34 380.63,892.59 382.45,896.11 385.00,899.07 389.34,902.65"/>
        <lane id=":204_5_2" index="2" speed="13.89" length="19.16" shape="375.53,888.54 377.86,894.26 379.86,898.08 382.66,901.29 387.39,905.19"/>
    </edge>
    <edge id=":204_8" function="internal">
        <lane id=":204_8_0" index="0" speed="10.92" length="6.22" shape="375.53,888.54 377.22,894.53"/>
        <lane id=":204_8_1" index="1" speed="10.40" length="5.00" shape="375.53,888.54 376.75,893.39"/>
    </edge>
    <edge id=":204_10" function="internal">
        <lane id=":204_10_0" index="0" speed="3.65" length="1.44" shape="375.53,888.54 375.24,889.95"/>
    </edge>
    <edge id=":204_16" function="internal">
        <lane id=":204_16_0" index="0" speed="10.92" length="18.92" shape="377.22,894.53 377.57,895.79 377.35,901.86 374.86,906.76 370.11,910.49"/>
    </edge>
    <edge id=":204_17" function="internal">
        <lane id=":204_17_0" index="0" speed="10.40" length="17.70" shape="376.75,893.39 377.03,894.49 376.37,899.66 373.56,904.05 368.60,907.67"/>
    </edge>
    <edge id=":204_18" function="internal">
        <lane id=":204_18_0" index="0" speed="3.65" length="3.23" shape="375.24,889.95 374.65,890.63 373.76,890.56 372.56,889.74"/>
    </edge>
    <edge id=":204_11" function="internal">
        <lane id=":204_11_0" index="0" speed="6.53" length="8.36" shape="364.08,899.20 365.91,897.87 366.94,896.25 367.18,894.34 366.63,892.15"/>
    </edge>
    <edge id=":204_12" function="internal">
        <lane id=":204_12_0" index="0" speed="12.70" length="25.21" shape="365.59,902.02 372.15,899.35 378.29,898.57 384.02,899.67 389.34,902.65"/>
        <lane id=":204_12_1" index="1" speed="11.76" length="21.53" shape="367.09,904.84 372.75,902.52 378.02,901.80 382.90,902.69 387.39,905.19"/>
    </edge>
    <edge id=":204_14" function="internal">