<?xml version="1.0" encoding="UTF-8"?>

<!-- generated on 2024-12-13 12:23:45 by Eclipse SUMO netedit Version 1.21.0
-->

<neteditConfiguration xmlns:xsi="http://www.w3.org/2001/XMLSchema-instance" xsi:noNamespaceSchemaLocation="http://sumo.dlr.de/xsd/neteditConfiguration.xsd">

    <input>
        <additional-files value="basemap.osm.add.xml"/>
        <route-files value="basemap.osm.rou.xml"/>
        <data-files value="basemap.osm.dat.xml"/>
        <sumo-net-file value="basemap.osm.net.xml"/>
        <osm-files value="basemap.osm"/>
    </input>

    <projection>
        <proj.utm value="true"/>
    </projection>

    <processing>
        <geometry.remove value="true"/>
        <offset.disable-normalization value="true"/>
    </processing>

    <tls_building>
        <tls.discard-simple value="true"/>
        <tls.guess-signals value="true"/>
    </tls_building>

    <ramp_guessing>
        <ramps.guess value="true"/>
    </ramp_guessing>

    <junctions>
        <no-turnarounds value="true"/>
        <junctions.join value="true"/>
    </junctions>

</neteditConfiguration>
