<?xml version="1.0" encoding="UTF-8"?>

<!-- generated on 2024-12-13 12:23:45 by Eclipse SUMO netedit Version 1.21.0
<neteditConfiguration xmlns:xsi="http://www.w3.org/2001/XMLSchema-instance" xsi:noNamespaceSchemaLocation="http://sumo.dlr.de/xsd/neteditConfiguration.xsd">

    <input>
        <sumo-net-file value="C:\Users\zelal\Repositories\Intelligent-Traffic-Agent\basemap\Simplified\basemap.osm.net.xml"/>
        <osm-files value="C:\Users\zelal\Repositories\Intelligent-Traffic-Agent\basemap\Simplified\basemap.osm"/>
    </input>

    <output>
        <output-file value="C:\Users\zelal\Repositories\Intelligent-Traffic-Agent\basemap\Simplified\basemap.osm.net.xml"/>
    </output>

    <projection>
        <proj.utm value="true"/>
    </projection>

    <processing>
        <geometry.remove value="true"/>
        <offset.disable-normalization value="true"/>
    </processing>

    <tls_building>
        <tls.discard-simple value="true"/>
        <tls.guess-signals value="true"/>
    </tls_building>

    <ramp_guessing>
        <ramps.guess value="true"/>
    </ramp_guessing>

    <junctions>
        <no-turnarounds value="true"/>
        <junctions.join value="true"/>
    </junctions>

</neteditConfiguration>
-->

<net version="1.20" junctionCornerDetail="5" limitTurnSpeed="5.50" xmlns:xsi="http://www.w3.org/2001/XMLSchema-instance" xsi:noNamespaceSchemaLocation="http://sumo.dlr.de/xsd/net_file.xsd">

    <location netOffset="0.00,0.00" convBoundary="472099.75,992228.45,478411.00,997576.00" origBoundary="38.746152,8.934996,38.811003,9.050170" projParameter="+proj=utm +zone=37 +ellps=WGS84 +datum=WGS84 +units=m +no_defs"/>

    <type id="highway.pedestrian" priority="1" numLanes="1" speed="2.78" allow="pedestrian" oneway="1" width="2.00"/>
    <type id="highway.primary" priority="12" numLanes="2" speed="27.78" disallow="tram rail_urban rail rail_electric rail_fast ship container cable_car subway aircraft wheelchair scooter drone" oneway="0"/>
    <type id="highway.primary_link" priority="7" numLanes="1" speed="22.22" disallow="tram rail_urban rail rail_electric rail_fast ship container cable_car subway aircraft wheelchair scooter drone" oneway="0"/>
    <type id="highway.secondary" priority="11" numLanes="1" speed="27.78" disallow="tram rail_urban rail rail_electric rail_fast ship container cable_car subway aircraft wheelchair scooter drone" oneway="0"/>
    <type id="highway.secondary_link" priority="6" numLanes="1" speed="22.22" disallow="tram rail_urban rail rail_electric rail_fast ship container cable_car subway aircraft wheelchair scooter drone" oneway="0"/>
    <type id="highway.steps" priority="1" numLanes="1" speed="1.39" allow="pedestrian" oneway="1" width="2.00"/>
    <type id="highway.tertiary" priority="10" numLanes="1" speed="22.22" disallow="tram rail_urban rail rail_electric rail_fast ship container cable_car subway aircraft wheelchair scooter drone" oneway="0"/>
    <type id="highway.tertiary_link" priority="5" numLanes="1" speed="22.22" disallow="tram rail_urban rail rail_electric rail_fast ship container cable_car subway aircraft wheelchair scooter drone" oneway="0"/>
    <type id="highway.track" priority="1" numLanes="1" speed="5.56" allow="pedestrian motorcycle moped bicycle" oneway="0"/>
    <type id="highway.trunk" priority="13" numLanes="2" speed="27.78" disallow="pedestrian bicycle tram rail_urban rail rail_electric rail_fast ship container cable_car subway aircraft wheelchair scooter drone" oneway="0"/>
    <type id="highway.trunk_link" priority="8" numLanes="1" speed="22.22" disallow="pedestrian bicycle tram rail_urban rail rail_electric rail_fast ship container cable_car subway aircraft wheelchair scooter drone" oneway="0"/>
    <type id="highway.unclassified" priority="4" numLanes="1" speed="13.89" disallow="tram rail_urban rail rail_electric rail_fast ship container cable_car subway aircraft wheelchair scooter drone" oneway="0"/>
    <type id="railway.light_rail" priority="19" numLanes="1" speed="27.78" allow="rail_urban" oneway="1"/>

    <edge id="-101844644" from="5165576985" to="263902964" priority="4" type="highway.unclassified">
        <lane id="-101844644_0" index="0" disallow="tram rail_urban rail rail_electric rail_fast ship container cable_car subway aircraft wheelchair scooter drone" speed="13.89" length="40.90" shape="477444.18,996137.66 477418.54,996169.54"/>
    </edge>
    <edge id="-1133062304" from="5473499625" to="5473442916" priority="7" type="highway.primary_link">
        <lane id="-1133062304_0" index="0" disallow="tram rail_urban rail rail_electric rail_fast ship container cable_car subway aircraft wheelchair scooter drone" speed="22.22" length="0.95" shape="477252.63,993799.25 477253.44,993799.73"/>
    </edge>
    <edge id="-1171554038#0" from="11845891698" to="1711174662" priority="12" type="highway.primary" shape="476614.73,994746.47 476588.40,994678.96 476577.28,994647.37">
        <lane id="-1171554038#0_0" index="0" disallow="tram rail_urban rail rail_electric rail_fast ship container cable_car subway aircraft wheelchair scooter drone" speed="27.78" length="96.23" shape="476610.25,994748.21 476583.89,994680.63 476576.01,994658.23"/>
        <lane id="-1171554038#0_1" index="1" disallow="tram rail_urban rail rail_electric rail_fast ship container cable_car subway aircraft wheelchair scooter drone" speed="27.78" length="96.23" shape="476613.24,994747.05 476586.89,994679.52 476579.03,994657.17"/>
    </edge>
    <edge id="-1171554038#1" from="11037663899" to="11845891698" priority="12" type="highway.primary" shape="476653.11,994847.47 476624.27,994770.92 476614.73,994746.47">
        <lane id="-1171554038#1_0" index="0" disallow="tram rail_urban rail rail_electric rail_fast ship container cable_car subway aircraft wheelchair scooter drone" speed="27.78" length="107.87" shape="476648.57,994849.02 476619.79,994772.63 476610.25,994748.21"/>
        <lane id="-1171554038#1_1" index="1" disallow="tram rail_urban rail rail_electric rail_fast ship container cable_car subway aircraft wheelchair scooter drone" speed="27.78" length="107.87" shape="476651.56,994847.90 476622.78,994771.49 476613.24,994747.05"/>
    </edge>
    <edge id="-1171554038#10" from="11037663888" to="11037663897" priority="12" type="highway.primary" shape="476785.86,995731.10 476787.26,995725.92 476798.29,995679.35 476810.50,995637.16 476813.75,995624.70">
        <lane id="-1171554038#10_0" index="0" disallow="tram rail_urban rail rail_electric rail_fast ship container cable_car subway aircraft wheelchair scooter drone" speed="27.78" length="109.69" shape="476781.27,995729.69 476782.61,995724.74 476793.65,995678.13 476805.87,995635.89 476809.07,995623.64"/>
        <lane id="-1171554038#10_1" index="1" disallow="tram rail_urban rail rail_electric rail_fast ship container cable_car subway aircraft wheelchair scooter drone" speed="27.78" length="109.69" shape="476784.36,995730.53 476785.71,995725.53 476796.75,995678.94 476808.96,995636.74 476812.16,995624.44"/>
    </edge>
    <edge id="-1171554038#11" from="11842761545" to="11037663888" priority="12" type="highway.primary" shape="476774.07,995774.22 476775.65,995768.68 476785.86,995731.10">
        <lane id="-1171554038#11_0" index="0" disallow="tram rail_urban rail rail_electric rail_fast ship container cable_car subway aircraft wheelchair scooter drone" speed="27.78" length="44.52" shape="476769.45,995772.90 476771.02,995767.39 476781.19,995729.98"/>
        <lane id="-1171554038#11_1" index="1" disallow="tram rail_urban rail rail_electric rail_fast ship container cable_car subway aircraft wheelchair scooter drone" speed="27.78" length="44.52" shape="476772.53,995773.78 476774.11,995768.25 476784.28,995730.82"/>
    </edge>
    <edge id="-1171554038#12" from="11037663889" to="11842761545" priority="12" type="highway.primary" shape="476750.52,995866.22 476753.14,995854.08 476764.16,995808.96 476774.07,995774.22">
        <lane id="-1171554038#12_0" index="0" disallow="tram rail_urban rail rail_electric rail_fast ship container cable_car subway aircraft wheelchair scooter drone" speed="27.78" length="95.20" shape="476745.83,995865.21 476748.47,995853.00 476759.52,995807.74 476769.45,995772.90"/>
        <lane id="-1171554038#12_1" index="1" disallow="tram rail_urban rail rail_electric rail_fast ship container cable_car subway aircraft wheelchair scooter drone" speed="27.78" length="95.20" shape="476748.96,995865.88 476751.59,995853.72 476762.62,995808.55 476772.53,995773.78"/>
    </edge>
    <edge id="-1171554038#13" from="11037663879" to="11037663889" priority="12" type="highway.primary" shape="476737.98,995923.76 476739.91,995915.59 476746.23,995886.14 476750.52,995866.22">
        <lane id="-1171554038#13_0" index="0" disallow="tram rail_urban rail rail_electric rail_fast ship container cable_car subway aircraft wheelchair scooter drone" speed="27.78" length="50.20" shape="476735.29,995914.26 476741.53,995885.13 476745.83,995865.21"/>
        <lane id="-1171554038#13_1" index="1" disallow="tram rail_urban rail rail_electric rail_fast ship container cable_car subway aircraft wheelchair scooter drone" speed="27.78" length="50.20" shape="476738.40,995914.99 476744.66,995885.81 476748.96,995865.88"/>
    </edge>
    <edge id="-1171554038#14" from="10886281971" to="11037663879" priority="12" type="highway.primary" shape="476723.89,995987.02 476730.94,995953.51 476737.98,995923.76">
        <lane id="-1171554038#14_0" index="0" disallow="tram rail_urban rail rail_electric rail_fast ship container cable_car subway aircraft wheelchair scooter drone" speed="27.78" length="56.59" shape="476719.22,995985.89 476726.26,995952.47 476731.44,995930.59"/>
        <lane id="-1171554038#14_1" index="1" disallow="tram rail_urban rail rail_electric rail_fast ship container cable_car subway aircraft wheelchair scooter drone" speed="27.78" length="56.59" shape="476722.35,995986.55 476729.38,995953.17 476734.55,995931.33"/>
    </edge>
    <edge id="-1171554038#15" from="10886281970" to="10886281971" priority="12" type="highway.primary">
        <lane id="-1171554038#15_0" index="0" disallow="tram rail_urban rail rail_electric rail_fast ship container cable_car subway aircraft wheelchair scooter drone" speed="27.78" length="50.11" shape="476708.16,996034.99 476719.17,995986.11"/>
        <lane id="-1171554038#15_1" index="1" disallow="tram rail_urban rail rail_electric rail_fast ship container cable_car subway aircraft wheelchair scooter drone" speed="27.78" length="50.11" shape="476711.29,996035.69 476722.29,995986.81"/>
    </edge>
    <edge id="-1171554038#16" from="10886281968" to="10886281970" priority="12" type="highway.primary" shape="476696.53,996117.58 476703.00,996078.89 476712.81,996036.19">
        <lane id="-1171554038#16_0" index="0" disallow="tram rail_urban rail rail_electric rail_fast ship container cable_car subway aircraft wheelchair scooter drone" speed="27.78" length="82.76" shape="476691.85,996116.47 476698.29,996077.96 476708.10,996035.26"/>
        <lane id="-1171554038#16_1" index="1" disallow="tram rail_urban rail rail_electric rail_fast ship container cable_car subway aircraft wheelchair scooter drone" speed="27.78" length="82.76" shape="476695.00,996117.00 476701.43,996078.58 476711.22,996035.98"/>
    </edge>
    <edge id="-1171554038#17" from="10886281947" to="10886281968" priority="12" type="highway.primary" shape="476668.57,996238.78 476672.29,996219.78 476676.03,996200.67 476681.69,996178.04 476685.95,996153.29 476691.61,996135.64 476696.53,996117.58">
        <lane id="-1171554038#17_0" index="0" disallow="tram rail_urban rail rail_electric rail_fast ship container cable_car subway aircraft wheelchair scooter drone" speed="27.78" length="124.29" shape="476663.89,996237.71 476667.58,996218.86 476671.35,996199.62 476676.99,996177.05 476681.28,996152.14 476687.01,996134.27 476691.81,996116.63"/>
        <lane id="-1171554038#17_1" index="1" disallow="tram rail_urban rail rail_electric rail_fast ship container cable_car subway aircraft wheelchair scooter drone" speed="27.78" length="124.29" shape="476667.03,996238.33 476670.72,996219.48 476674.47,996200.32 476680.13,996177.71 476684.40,996152.90 476690.08,996135.18 476694.90,996117.47"/>
    </edge>
    <edge id="-1171554038#18" from="11037663896" to="10886281947" priority="12" type="highway.primary" shape="476658.10,996286.23 476660.59,996274.63 476665.81,996252.88 476668.57,996238.78">
        <lane id="-1171554038#18_0" index="0" disallow="tram rail_urban rail rail_electric rail_fast ship container cable_car subway aircraft wheelchair scooter drone" speed="27.78" length="48.39" shape="476653.41,996285.22 476655.91,996273.56 476661.12,996251.86 476663.83,996238.00"/>
        <lane id="-1171554038#18_1" index="1" disallow="tram rail_urban rail rail_electric rail_fast ship container cable_car subway aircraft wheelchair scooter drone" speed="27.78" length="48.39" shape="476656.54,996285.89 476659.03,996274.27 476664.25,996252.54 476666.97,996238.62"/>
    </edge>
    <edge id="-1171554038#19" from="5601631744" to="11037663896" priority="12" type="highway.primary" shape="476643.24,996366.70 476643.13,996354.50 476650.97,996319.52 476658.10,996286.23">
        <lane id="-1171554038#19_0" index="0" disallow="tram rail_urban rail rail_electric rail_fast ship container cable_car subway aircraft wheelchair scooter drone" speed="27.78" length="81.50" shape="476638.43,996365.44 476638.32,996354.00 476646.28,996318.49 476653.41,996285.22"/>
        <lane id="-1171554038#19_1" index="1" disallow="tram rail_urban rail rail_electric rail_fast ship container cable_car subway aircraft wheelchair scooter drone" speed="27.78" length="81.50" shape="476641.63,996365.41 476641.53,996354.34 476649.40,996319.18 476656.54,996285.89"/>
    </edge>
    <edge id="-1171554038#2" from="11037663881" to="11037663899" priority="12" type="highway.primary" shape="476685.52,994924.54 476654.39,994850.85 476653.11,994847.47">
        <lane id="-1171554038#2_0" index="0" disallow="tram rail_urban rail rail_electric rail_fast ship container cable_car subway aircraft wheelchair scooter drone" speed="27.78" length="83.58" shape="476681.09,994926.41 476649.93,994852.64 476648.67,994849.31"/>
        <lane id="-1171554038#2_1" index="1" disallow="tram rail_urban rail rail_electric rail_fast ship container cable_car subway aircraft wheelchair scooter drone" speed="27.78" length="83.58" shape="476684.04,994925.17 476652.90,994851.45 476651.67,994848.18"/>
    </edge>
    <edge id="-1171554038#3" from="11842761544" to="11037663881" priority="12" type="highway.primary" shape="476854.14,995364.91 476852.51,995358.60 476835.52,995309.11 476792.12,995200.77 476739.13,995067.83 476708.12,994978.07 476685.52,994924.54">
        <lane id="-1171554038#3_0" index="0" disallow="tram rail_urban rail rail_electric rail_fast ship container cable_car subway aircraft wheelchair scooter drone" speed="27.78" length="471.11" shape="476849.45,995365.97 476847.91,995359.98 476831.02,995310.78 476787.66,995202.55 476734.63,995069.50 476703.64,994979.79 476681.09,994926.41"/>
        <lane id="-1171554038#3_1" index="1" disallow="tram rail_urban rail rail_electric rail_fast ship container cable_car subway aircraft wheelchair scooter drone" speed="27.78" length="471.11" shape="476852.55,995365.17 476850.97,995359.06 476834.02,995309.67 476790.63,995201.36 476737.63,995068.39 476706.63,994978.65 476684.04,994925.17"/>
    </edge>
    <edge id="-1171554038#4" from="11037663886" to="11842761544" priority="12" type="highway.primary" shape="476857.64,995450.70 476859.04,995444.71 476862.55,995421.28 476864.17,995403.84 476854.14,995364.91">
        <lane id="-1171554038#4_0" index="0" disallow="tram rail_urban rail rail_electric rail_fast ship container cable_car subway aircraft wheelchair scooter drone" speed="27.78" length="75.31" shape="476855.00,995439.27 476857.79,995420.70 476859.31,995404.23 476849.53,995366.25"/>
        <lane id="-1171554038#4_1" index="1" disallow="tram rail_urban rail rail_electric rail_fast ship container cable_car subway aircraft wheelchair scooter drone" speed="27.78" length="75.31" shape="476858.13,995440.00 476860.97,995421.09 476862.55,995403.97 476852.62,995365.45"/>
    </edge>
    <edge id="-1171554038#5" from="11037663885" to="11037663886" priority="12" type="highway.primary" shape="476853.92,995464.76 476855.36,995460.38 476857.64,995450.70">
        <lane id="-1171554038#5_0" index="0" disallow="tram rail_urban rail rail_electric rail_fast ship container cable_car subway aircraft wheelchair scooter drone" speed="27.78" length="0.20" shape="476851.04,995457.76 476851.09,995457.57"/>
        <lane id="-1171554038#5_1" index="1" disallow="tram rail_urban rail rail_electric rail_fast ship container cable_car subway aircraft wheelchair scooter drone" speed="27.78" length="0.20" shape="476854.12,995458.63 476854.17,995458.44"/>
    </edge>
    <edge id="-1171554038#6" from="11037663884" to="11037663885" priority="12" type="highway.primary">
        <lane id="-1171554038#6_0" index="0" disallow="tram rail_urban rail rail_electric rail_fast ship container cable_car subway aircraft wheelchair scooter drone" speed="27.78" length="0.20" shape="476847.64,995468.49 476847.70,995468.30"/>
        <lane id="-1171554038#6_1" index="1" disallow="tram rail_urban rail rail_electric rail_fast ship container cable_car subway aircraft wheelchair scooter drone" speed="27.78" length="0.20" shape="476850.68,995469.49 476850.74,995469.30"/>
    </edge>
    <edge id="-1171554038#7" from="5448685528" to="11037663884" priority="12" type="highway.primary" shape="476847.34,995485.50 476848.15,995482.35 476850.39,995475.53">
        <lane id="-1171554038#7_0" index="0" disallow="tram rail_urban rail rail_electric rail_fast ship container cable_car subway aircraft wheelchair scooter drone" speed="27.78" length="0.20" shape="476845.98,995473.54 476846.05,995473.35"/>
        <lane id="-1171554038#7_1" index="1" disallow="tram rail_urban rail rail_electric rail_fast ship container cable_car subway aircraft wheelchair scooter drone" speed="27.78" length="0.20" shape="476849.06,995474.44 476849.12,995474.25"/>
    </edge>
    <edge id="-1171554038#8" from="11037663898" to="5448685528" priority="12" type="highway.primary" shape="476833.58,995540.51 476839.47,995516.91 476847.34,995485.50">
        <lane id="-1171554038#8_0" index="0" disallow="tram rail_urban rail rail_electric rail_fast ship container cable_car subway aircraft wheelchair scooter drone" speed="27.78" length="39.35" shape="476828.96,995539.20 476834.82,995515.75 476838.50,995501.02"/>
        <lane id="-1171554038#8_1" index="1" disallow="tram rail_urban rail rail_electric rail_fast ship container cable_car subway aircraft wheelchair scooter drone" speed="27.78" length="39.35" shape="476832.07,995539.98 476837.92,995516.53 476841.61,995501.80"/>
    </edge>
    <edge id="-1171554038#9" from="11037663897" to="11037663898" priority="12" type="highway.primary" shape="476813.75,995624.70 476823.30,995587.95 476831.83,995547.52 476833.58,995540.51">
        <lane id="-1171554038#9_0" index="0" disallow="tram rail_urban rail rail_electric rail_fast ship container cable_car subway aircraft wheelchair scooter drone" speed="27.78" length="86.19" shape="476809.14,995623.35 476818.63,995586.85 476827.15,995546.44 476828.89,995539.49"/>
        <lane id="-1171554038#9_1" index="1" disallow="tram rail_urban rail rail_electric rail_fast ship container cable_car subway aircraft wheelchair scooter drone" speed="27.78" length="86.19" shape="476812.24,995624.15 476821.74,995587.58 476830.27,995547.16 476832.00,995540.27"/>
    </edge>
    <edge id="-1188448268#0" from="1701465315" to="262622185" priority="11" type="highway.secondary" shape="474650.80,996671.37 474677.33,996666.01 474700.90,996659.99 474729.00,996649.59">
        <lane id="-1188448268#0_0" index="0" disallow="tram rail_urban rail rail_electric rail_fast ship container cable_car subway aircraft wheelchair scooter drone" speed="27.78" length="72.93" shape="474650.63,996669.77 474676.97,996664.45 474700.42,996658.46 474720.91,996650.88"/>
    </edge>
    <edge id="-1188448268#1" from="5160421462" to="1701465315" priority="11" type="highway.secondary" shape="474605.78,996676.69 474620.27,996674.67 474650.80,996671.37">
        <lane id="-1188448268#1_0" index="0" disallow="tram rail_urban rail rail_electric rail_fast ship container cable_car subway aircraft wheelchair scooter drone" speed="27.78" length="45.09" shape="474605.71,996675.09 474620.07,996673.08 474650.48,996669.79"/>
    </edge>
    <edge id="-1188448268#2" from="10991472870" to="5160421462" priority="11" type="highway.secondary">
        <lane id="-1188448268#2_0" index="0" disallow="tram rail_urban rail rail_electric rail_fast ship container cable_car subway aircraft wheelchair scooter drone" speed="27.78" length="12.79" shape="474592.75,996677.00 474605.40,996675.13"/>
    </edge>
    <edge id="-1188448268#3" from="791198084" to="10991472870" priority="11" type="highway.secondary">
        <lane id="-1188448268#3_0" index="0" disallow="tram rail_urban rail rail_electric rail_fast ship container cable_car subway aircraft wheelchair scooter drone" speed="27.78" length="9.12" shape="474583.72,996678.33 474592.75,996677.00"/>
    </edge>
    <edge id="-1188448268#4" from="262622187" to="791198084" priority="11" type="highway.secondary">
        <lane id="-1188448268#4_0" index="0" disallow="tram rail_urban rail rail_electric rail_fast ship container cable_car subway aircraft wheelchair scooter drone" speed="27.78" length="61.16" shape="474522.95,996684.42 474583.80,996678.32"/>
    </edge>
    <edge id="-1192865894" from="11072880406" to="11072803100" priority="11" type="highway.secondary" shape="472560.99,993196.11 472641.74,993417.91 472714.65,993623.30 472722.68,993645.92 472733.53,993676.89 472737.47,993689.73 472752.25,993744.07">
        <lane id="-1192865894_0" index="0" disallow="tram rail_urban rail rail_electric rail_fast ship container cable_car subway aircraft wheelchair scooter drone" speed="27.78" length="580.41" shape="472562.49,993195.57 472643.25,993417.37 472716.15,993622.77 472724.18,993645.39 472735.05,993676.39 472739.00,993689.29 472753.73,993743.39"/>
    </edge>
    <edge id="-1193471550" from="5765162009" to="5765162010" priority="8" type="highway.trunk_link">
        <lane id="-1193471550_0" index="0" disallow="pedestrian bicycle tram rail_urban rail rail_electric rail_fast ship container cable_car subway aircraft wheelchair scooter drone" speed="22.22" length="0.20" shape="475723.40,992928.60 475723.27,992928.44"/>
    </edge>
    <edge id="-1229700525#0" from="2060097476" to="263029875" priority="12" type="highway.primary" shape="476808.58,995623.47 476802.99,995646.46 476794.16,995678.76 476785.27,995709.52 476780.04,995729.29">
        <lane id="-1229700525#0_0" index="0" disallow="tram rail_urban rail rail_electric rail_fast ship container cable_car subway aircraft wheelchair scooter drone" speed="27.78" length="102.23" shape="476813.21,995624.74 476807.64,995647.66 476798.78,995680.06 476789.89,995710.79 476786.55,995723.45"/>
        <lane id="-1229700525#0_1" index="1" disallow="tram rail_urban rail rail_electric rail_fast ship container cable_car subway aircraft wheelchair scooter drone" speed="27.78" length="102.23" shape="476810.10,995623.99 476804.54,995646.86 476795.70,995679.20 476786.81,995709.94 476783.46,995722.64"/>
    </edge>
    <edge id="-1229700525#1" from="268773416" to="2060097476" priority="12" type="highway.primary">
        <lane id="-1229700525#1_0" index="0" disallow="tram rail_urban rail rail_electric rail_fast ship container cable_car subway aircraft wheelchair scooter drone" speed="27.78" length="5.36" shape="476814.59,995619.30 476813.27,995624.50"/>
        <lane id="-1229700525#1_1" index="1" disallow="tram rail_urban rail rail_electric rail_fast ship container cable_car subway aircraft wheelchair scooter drone" speed="27.78" length="5.36" shape="476811.49,995618.52 476810.17,995623.72"/>
    </edge>
    <edge id="-1229700525#2" from="306102186" to="268773416" priority="12" type="highway.primary" shape="476829.46,995539.47 476824.17,995561.88 476816.74,995592.64 476809.98,995617.98">
        <lane id="-1229700525#2_0" index="0" disallow="tram rail_urban rail rail_electric rail_fast ship container cable_car subway aircraft wheelchair scooter drone" speed="27.78" length="80.69" shape="476834.10,995540.72 476828.83,995562.99 476821.40,995593.82 476814.65,995619.08"/>
        <lane id="-1229700525#2_1" index="1" disallow="tram rail_urban rail rail_electric rail_fast ship container cable_car subway aircraft wheelchair scooter drone" speed="27.78" length="80.69" shape="476830.99,995539.99 476825.72,995562.25 476818.29,995593.03 476811.56,995618.25"/>
    </edge>
    <edge id="-1229700525#3" from="5448538114" to="306102186" priority="12" type="highway.primary" shape="476841.23,995491.36 476834.82,995515.74 476829.46,995539.47">
        <lane id="-1229700525#3_0" index="0" disallow="tram rail_urban rail rail_electric rail_fast ship container cable_car subway aircraft wheelchair scooter drone" speed="27.78" length="55.17" shape="476847.37,995486.88 476839.49,995516.88 476834.18,995540.39"/>
        <lane id="-1229700525#3_1" index="1" disallow="tram rail_urban rail rail_electric rail_fast ship container cable_car subway aircraft wheelchair scooter drone" speed="27.78" length="55.17" shape="476844.27,995486.07 476836.38,995516.12 476831.06,995539.68"/>
    </edge>
    <edge id="-1229700525#4" from="263032282" to="5448538114" priority="12" type="highway.primary">
        <lane id="-1229700525#4_0" index="0" disallow="tram rail_urban rail rail_electric rail_fast ship container cable_car subway aircraft wheelchair scooter drone" speed="27.78" length="0.20" shape="476849.79,995479.50 476849.73,995479.69"/>
        <lane id="-1229700525#4_1" index="1" disallow="tram rail_urban rail rail_electric rail_fast ship container cable_car subway aircraft wheelchair scooter drone" speed="27.78" length="0.20" shape="476846.72,995478.58 476846.66,995478.77"/>
    </edge>
    <edge id="-1320741682" from="2869843590" to="2869843591" priority="7" type="highway.primary_link">
        <lane id="-1320741682_0" index="0" disallow="tram rail_urban rail rail_electric rail_fast ship container cable_car subway aircraft wheelchair scooter drone" speed="22.22" length="0.96" shape="476242.70,993864.74 476242.28,993863.89"/>
    </edge>
    <edge id="-150796237" from="1636717840" to="415720305" priority="10" type="highway.tertiary">
        <lane id="-150796237_0" index="0" disallow="tram rail_urban rail rail_electric rail_fast ship container cable_car subway aircraft wheelchair scooter drone" speed="22.22" length="5.34" shape="473603.81,993366.86 473609.07,993365.92"/>
    </edge>
    <edge id="-156193303#0" from="263029640" to="746625941" priority="12" type="highway.primary" shape="476472.85,995353.56 476446.83,995347.86 476422.00,995342.96 476406.07,995340.20">
        <lane id="-156193303#0_0" index="0" disallow="tram rail_urban rail rail_electric rail_fast ship container cable_car subway aircraft wheelchair scooter drone" speed="27.78" length="60.10" shape="476471.66,995358.21 476445.85,995352.56 476421.12,995347.68 476412.85,995346.24"/>
        <lane id="-156193303#0_1" index="1" disallow="tram rail_urban rail rail_electric rail_fast ship container cable_car subway aircraft wheelchair scooter drone" speed="27.78" length="60.10" shape="476472.35,995355.08 476446.51,995349.42 476421.71,995344.53 476413.40,995343.09"/>
    </edge>
    <edge id="-156193303#1" from="264132694" to="263029640" priority="12" type="highway.primary" shape="476584.01,995386.14 476544.66,995374.09 476513.84,995364.80 476472.85,995353.56">
        <lane id="-156193303#1_0" index="0" disallow="tram rail_urban rail rail_electric rail_fast ship container cable_car subway aircraft wheelchair scooter drone" speed="27.78" length="115.45" shape="476582.47,995390.69 476543.26,995378.68 476512.52,995369.41 476471.74,995358.23"/>
        <lane id="-156193303#1_1" index="1" disallow="tram rail_urban rail rail_electric rail_fast ship container cable_car subway aircraft wheelchair scooter drone" speed="27.78" length="115.45" shape="476583.41,995387.63 476544.19,995375.62 476513.40,995366.34 476472.59,995355.14"/>
    </edge>
    <edge id="-156193303#2" from="263032170" to="264132694" priority="12" type="highway.primary">
        <lane id="-156193303#2_0" index="0" disallow="tram rail_urban rail rail_electric rail_fast ship container cable_car subway aircraft wheelchair scooter drone" speed="27.78" length="32.03" shape="476613.15,995400.61 476582.67,995390.75"/>
        <lane id="-156193303#2_1" index="1" disallow="tram rail_urban rail rail_electric rail_fast ship container cable_car subway aircraft wheelchair scooter drone" speed="27.78" length="32.03" shape="476614.13,995397.56 476583.66,995387.71"/>
    </edge>
    <edge id="-156193303#3" from="264132593" to="263032170" priority="12" type="highway.primary">
        <lane id="-156193303#3_0" index="0" disallow="tram rail_urban rail rail_electric rail_fast ship container cable_car subway aircraft wheelchair scooter drone" speed="27.78" length="11.36" shape="476624.10,995404.34 476613.35,995400.67"/>
        <lane id="-156193303#3_1" index="1" disallow="tram rail_urban rail rail_electric rail_fast ship container cable_car subway aircraft wheelchair scooter drone" speed="27.78" length="11.36" shape="476625.14,995401.31 476614.38,995397.64"/>
    </edge>
    <edge id="-156193303#4" from="268754812" to="264132593" priority="12" type="highway.primary" shape="476695.62,995418.95 476668.06,995410.70 476625.89,995399.88">