<?xml version="1.0" encoding="UTF-8"?>

<!-- generated on 2024-12-19 23:14:26 by Eclipse SUMO netedit Version 1.21.0
<neteditConfiguration xmlns:xsi="http://www.w3.org/2001/XMLSchema-instance" xsi:noNamespaceSchemaLocation="http://sumo.dlr.de/xsd/neteditConfiguration.xsd">

    <input>
        <sumo-net-file value="C:\Users\zelal\Repositories\Intelligent-Traffic-Agent\RandomNetwork\RandomNetwork.net.xml"/>
    </input>

    <output>
        <output-file value="C:\Users\zelal\Repositories\Intelligent-Traffic-Agent\RandomNetwork\RandomNetwork.net.xml"/>
    </output>

    <processing>
        <geometry.min-radius.fix.railways value="false"/>
        <geometry.max-grade.fix value="false"/>
        <offset.disable-normalization value="true"/>
        <lefthand value="0"/>
    </processing>

    <junctions>
        <no-turnarounds value="true"/>
        <junctions.corner-detail value="5"/>
        <junctions.limit-turn-speed value="5.50"/>
        <rectangular-lane-cut value="0"/>
    </junctions>

    <pedestrian>
        <walkingareas value="0"/>
    </pedestrian>

</neteditConfiguration>
-->

<net version="1.20" junctionCornerDetail="5" limitTurnSpeed="5.50" xmlns:xsi="http://www.w3.org/2001/XMLSchema-instance" xsi:noNamespaceSchemaLocation="http://sumo.dlr.de/xsd/net_file.xsd">

    <location netOffset="882.72,738.74" convBoundary="0.00,0.00,1710.96,1153.22" origBoundary="-882.72,-738.74,897.66,753.55" projParameter="!"/>

    <edge id=":1_0" function="internal">
        <lane id=":1_0_0" index="0" speed="6.15" length="6.29" shape="885.08,740.43 883.44,740.15 882.14,739.44 881.20,738.31 880.60,736.76"/>
    </edge>
    <edge id=":1_1" function="internal">
        <lane id=":1_1_0" index="0" speed="3.65" length="1.44" shape="885.08,740.43 883.91,739.59"/>
    </edge>
    <edge id=":1_4" function="internal">
        <lane id=":1_4_0" index="0" speed="3.65" length="3.23" shape="883.91,739.59 883.54,738.77 883.97,737.99 885.20,737.23"/>
    </edge>
    <edge id=":1_2" function="internal">
        <lane id=":1_2_0" index="0" speed="3.94" length="2.10" shape="883.71,736.01 883.91,736.53 884.22,736.90 884.66,737.14 885.20,737.23"/>
    </edge>
    <edge id=":1_3" function="internal">
        <lane id=":1_3_0" index="0" speed="3.65" length="1.31" shape="883.71,736.01 883.26,737.24"/>
    </edge>
    <edge id=":1_5" function="internal">
        <lane id=":1_5_0" index="0" speed="3.65" length="3.36" shape="883.26,737.24 883.21,737.36 882.53,737.94 881.66,737.74 880.60,736.76"/>
    </edge>
    <edge id=":115_0" function="internal">
        <lane id=":115_0_0" index="0" speed="5.67" length="9.24" shape="1054.83,431.48 1053.27,429.19 1051.63,428.35 1049.89,428.97 1048.06,431.05"/>
    </edge>
    <edge id=":115_1" function="internal">
        <lane id=":115_1_0" index="0" speed="11.86" length="15.57" shape="1054.83,431.48 1052.63,427.95 1049.96,425.18 1046.82,423.17 1043.19,421.94"/>
    </edge>
    <edge id=":115_2" function="internal">
        <lane id=":115_2_0" index="0" speed="3.65" length="1.34" shape="1054.83,431.48 1054.99,430.15"/>
    </edge>
    <edge id=":115_9" function="internal">
        <lane id=":115_9_0" index="0" speed="3.65" length="3.33" shape="1054.99,430.15 1055.01,430.05 1055.54,429.34 1056.44,429.34 1057.69,430.05"/>
    </edge>
    <edge id=":115_3" function="internal">
        <lane id=":115_3_0" index="0" speed="12.87" length="18.42" shape="1043.89,418.81 1048.20,420.28 1051.94,422.64 1055.11,425.90 1057.69,430.05"/>
    </edge>
    <edge id=":115_4" function="internal">
        <lane id=":115_4_0" index="0" speed="7.64" length="5.91" shape="1043.89,418.81 1048.18,420.47 1049.01,421.48"/>
    </edge>
    <edge id=":115_5" function="internal">
        <lane id=":115_5_0" index="0" speed="3.65" length="1.44" shape="1043.89,418.81 1044.88,419.85"/>
    </edge>
    <edge id=":115_10" function="internal">
        <lane id=":115_10_0" index="0" speed="7.64" length="10.55" shape="1049.01,421.48 1050.31,423.06 1050.26,426.59 1048.06,431.05"/>
    </edge>
    <edge id=":115_11" function="internal">
        <lane id=":115_11_0" index="0" speed="3.65" length="3.23" shape="1044.88,419.85 1045.10,420.72 1044.54,421.41 1043.19,421.94"/>
    </edge>
    <edge id=":115_6" function="internal">
        <lane id=":115_6_0" index="0" speed="6.02" length="9.74" shape="1045.40,429.28 1046.75,426.58 1046.84,424.46 1045.65,422.91 1043.19,421.94"/>
    </edge>
    <edge id=":115_7" function="internal">
        <lane id=":115_7_0" index="0" speed="7.41" length="16.78" shape="1045.40,429.28 1048.72,425.50 1051.88,424.37 1054.87,425.88 1057.69,430.05"/>
    </edge>
    <edge id=":115_8" function="internal">
        <lane id=":115_8_0" index="0" speed="3.65" length="4.67" shape="1045.40,429.28 1046.73,428.72 1047.61,428.84 1048.06,429.61 1048.06,431.05"/>
    </edge>
    <edge id=":118_0" function="internal">
        <lane id=":118_0_0" index="0" speed="13.89" length="17.12" shape="658.72,415.85 654.78,416.84 650.34,417.39 645.85,417.57 641.76,417.44"/>
    </edge>
    <edge id=":118_1" function="internal">
        <lane id=":118_1_0" index="0" speed="9.29" length="4.10" shape="658.72,415.85 655.08,416.38 654.68,416.26"/>
    </edge>
    <edge id=":118_2" function="internal">
        <lane id=":118_2_0" index="0" speed="3.65" length="1.44" shape="658.72,415.85 657.32,415.49"/>
    </edge>
    <edge id=":118_9" function="internal">
        <lane id=":118_9_0" index="0" speed="9.29" length="12.40" shape="654.68,416.26 651.65,415.36 648.42,412.79 645.40,408.66"/>
    </edge>
    <edge id=":118_10" function="internal">
        <lane id=":118_10_0" index="0" speed="3.65" length="3.23" shape="657.32,415.49 656.68,414.87 656.80,413.98 657.66,412.83"/>
    </edge>
    <edge id=":118_3" function="internal">
        <lane id=":118_3_0" index="0" speed="8.03" length="12.09" shape="648.15,407.03 650.43,410.22 652.78,412.25 655.19,413.12 657.66,412.83"/>
    </edge>
    <edge id=":118_4" function="internal">
        <lane id=":118_4_0" index="0" speed="7.38" length="17.43" shape="648.15,407.03 650.28,411.91 649.92,415.28 647.08,417.12 641.76,417.44"/>
    </edge>
    <edge id=":118_5" function="internal">
        <lane id=":118_5_0" index="0" speed="3.65" length="4.67" shape="648.15,407.03 648.08,408.47 647.59,409.22 646.70,409.29 645.40,408.66"/>
    </edge>
    <edge id=":118_6" function="internal">
        <lane id=":118_6_0" index="0" speed="5.59" length="9.34" shape="641.98,414.25 644.83,414.08 646.35,413.09 646.54,411.28 645.40,408.66"/>
    </edge>
    <edge id=":118_7" function="internal">
        <lane id=":118_7_0" index="0" speed="13.89" length="15.84" shape="641.98,414.25 645.87,414.40 649.92,414.28 653.92,413.79 657.66,412.83"/>
    </edge>
    <edge id=":118_8" function="internal">
        <lane id=":118_8_0" index="0" speed="3.65" length="1.44" shape="641.98,414.25 643.12,415.13"/>
    </edge>
    <edge id=":118_11" function="internal">
        <lane id=":118_11_0" index="0" speed="3.65" length="3.23" shape="643.12,415.13 643.47,415.95 643.02,416.72 641.76,417.44"/>
    </edge>
    <edge id=":12_0" function="internal">
        <lane id=":12_0_0" index="0" speed="13.89" length="19.16" shape="962.24,571.64 959.23,568.47 955.17,565.25 950.80,562.44 946.85,560.49"/>
    </edge>
    <edge id=":12_1" function="internal">
        <lane id=":12_1_0" index="0" speed="13.89" length="20.94" shape="962.24,571.64 959.70,567.72 956.88,562.66 954.28,557.48 952.40,553.20"/>
    </edge>
    <edge id=":12_2" function="internal">
        <lane id=":12_2_0" index="0" speed="10.88" length="5.51" shape="962.24,571.64 959.94,567.32 959.85,566.72"/>
    </edge>
    <edge id=":12_3" function="internal">
        <lane id=":12_3_0" index="0" speed="7.68" length="5.06" shape="962.24,571.64 959.96,567.29 959.98,567.14"/>
    </edge>
    <edge id=":12_4" function="internal">
        <lane id=":12_4_0" index="0" speed="3.65" length="1.44" shape="962.24,571.64 962.17,570.20"/>
    </edge>
    <edge id=":12_25" function="internal">
        <lane id=":12_25_0" index="0" speed="10.88" length="14.51" shape="959.85,566.72 959.27,562.77 960.23,557.99 962.84,552.98"/>
    </edge>
    <edge id=":12_26" function="internal">
        <lane id=":12_26_0" index="0" speed="7.68" length="12.84" shape="959.98,567.14 960.29,563.90 963.24,561.46 968.80,559.97"/>
    </edge>
    <edge id=":12_27" function="internal">
        <lane id=":12_27_0" index="0" speed="3.65" length="3.23" shape="962.17,570.20 962.57,569.40 963.45,569.25 964.81,569.73"/>
    </edge>
    <edge id=":12_5" function="internal">
        <lane id=":12_5_0" index="0" speed="6.05" length="10.54" shape="969.26,563.14 965.82,564.01 963.93,565.41 963.60,567.31 964.81,569.73"/>
    </edge>
    <edge id=":12_6" function="internal">
        <lane id=":12_6_0" index="0" speed="13.89" length="22.69" shape="969.26,563.14 964.33,563.29 957.94,562.78 951.62,561.78 946.85,560.49"/>
    </edge>
    <edge id=":12_7" function="internal">
        <lane id=":12_7_0" index="0" speed="10.61" length="7.74" shape="969.26,563.14 963.58,563.20 961.64,562.52"/>
    </edge>
    <edge id=":12_8" function="internal">
        <lane id=":12_8_0" index="0" speed="7.40" length="7.33" shape="969.26,563.14 963.37,563.31 962.10,562.63"/>
    </edge>
    <edge id=":12_9" function="internal">
        <lane id=":12_9_0" index="0" speed="3.65" length="1.44" shape="969.26,563.14 967.96,562.52"/>
    </edge>
    <edge id=":12_28" function="internal">
        <lane id=":12_28_0" index="0" speed="10.61" length="13.66" shape="961.64,562.52 958.87,561.56 955.15,558.23 952.40,553.20"/>
    </edge>
    <edge id=":12_29" function="internal">
        <lane id=":12_29_0" index="0" speed="7.40" length="11.35" shape="962.10,562.63 960.33,561.67 960.16,558.23 962.84,552.98"/>
    </edge>
    <edge id=":12_30" function="internal">
        <lane id=":12_30_0" index="0" speed="3.65" length="3.23" shape="967.96,562.52 967.45,561.79 967.73,560.94 968.80,559.97"/>
    </edge>
    <edge id=":12_10" function="internal">
        <lane id=":12_10_0" index="0" speed="5.50" length="9.60" shape="965.50,554.75 964.12,557.45 964.21,559.22 965.77,560.06 968.80,559.97"/>
    </edge>
    <edge id=":12_11" function="internal">
        <lane id=":12_11_0" index="0" speed="9.79" length="16.07" shape="965.50,554.75 963.36,558.83 962.53,562.69 963.02,566.32 964.81,569.73"/>
    </edge>
    <edge id=":12_12" function="internal">
        <lane id=":12_12_0" index="0" speed="10.55" length="21.36" shape="965.50,554.75 961.73,559.01 957.37,561.38 952.41,561.88 946.85,560.49"/>
    </edge>
    <edge id=":12_13" function="internal">
        <lane id=":12_13_0" index="0" speed="7.65" length="18.93" shape="965.50,554.75 961.70,559.11 958.26,560.31 955.16,558.34 952.40,553.20"/>
    </edge>
    <edge id=":12_14" function="internal">
        <lane id=":12_14_0" index="0" speed="3.65" length="1.44" shape="965.50,554.75 964.17,555.31"/>
    </edge>
    <edge id=":12_31" function="internal">
        <lane id=":12_31_0" index="0" speed="3.65" length="3.23" shape="964.17,555.31 963.28,555.20 962.83,554.42 962.84,552.98"/>
    </edge>
    <edge id=":12_15" function="internal">
        <lane id=":12_15_0" index="0" speed="5.93" length="10.77" shape="955.39,552.05 956.96,554.98 958.72,556.12 960.68,555.45 962.84,552.98"/>
    </edge>
    <edge id=":12_16" function="internal">
        <lane id=":12_16_0" index="0" speed="9.51" length="17.02" shape="955.39,552.05 957.57,556.06 960.54,558.71 964.28,560.02 968.80,559.97"/>
    </edge>
    <edge id=":12_17" function="internal">
        <lane id=":12_17_0" index="0" speed="13.89" length="20.07" shape="955.39,552.05 957.20,556.22 959.65,561.14 962.33,565.93 964.81,569.73"/>
    </edge>
    <edge id=":12_18" function="internal">
        <lane id=":12_18_0" index="0" speed="7.40" length="4.41" shape="955.39,552.05 956.48,556.32"/>
    </edge>
    <edge id=":12_19" function="internal">
        <lane id=":12_19_0" index="0" speed="3.65" length="1.44" shape="955.39,552.05 955.07,553.46"/>
    </edge>
    <edge id=":12_32" function="internal">
        <lane id=":12_32_0" index="0" speed="7.40" length="14.40" shape="956.48,556.32 956.87,557.81 955.94,561.14 952.60,562.03 946.85,560.49"/>
    </edge>
    <edge id=":12_33" function="internal">
        <lane id=":12_33_0" index="0" speed="3.65" length="3.23" shape="955.07,553.46 954.47,554.12 953.58,554.03 952.40,553.20"/>
    </edge>
    <edge id=":12_20" function="internal">
        <lane id=":12_20_0" index="0" speed="5.49" length="9.62" shape="948.03,557.51 950.97,558.30 952.68,557.85 953.16,556.15 952.40,553.20"/>
    </edge>
    <edge id=":12_21" function="internal">
        <lane id=":12_21_0" index="0" speed="9.45" length="16.95" shape="948.03,557.51 952.45,558.62 956.39,558.23 959.85,556.35 962.84,552.98"/>
    </edge>
    <edge id=":12_22" function="internal">
        <lane id=":12_22_0" index="0" speed="13.89" length="21.03" shape="948.03,557.51 952.54,558.78 958.30,559.71 964.12,560.15 968.80,559.97"/>
    </edge>
    <edge id=":12_23" function="internal">
        <lane id=":12_23_0" index="0" speed="13.89" length="20.90" shape="948.03,557.51 952.20,559.64 957.05,562.81 961.59,566.39 964.81,569.73"/>
    </edge>
    <edge id=":12_24" function="internal">
        <lane id=":12_24_0" index="0" speed="3.65" length="1.33" shape="948.03,557.51 948.79,558.60"/>
    </edge>
    <edge id=":12_34" function="internal">
        <lane id=":12_34_0" index="0" speed="3.65" length="3.35" shape="948.79,558.60 948.85,558.70 948.93,559.59 948.26,560.19 946.85,560.49"/>
    </edge>
    <edge id=":122_0" function="internal">
        <lane id=":122_0_0" index="0" speed="6.55" length="7.91" shape="1330.45,529.49 1328.33,529.47 1326.60,530.09 1325.27,531.34 1324.32,533.24"/>
    </edge>
    <edge id=":122_1" function="internal">
        <lane id=":122_1_0" index="0" speed="8.64" length="12.14" shape="1330.45,529.49 1327.28,528.63 1324.81,527.08 1323.05,524.85 1321.99,521.93"/>
    </edge>
    <edge id=":122_2" function="internal">
        <lane id=":122_2_0" index="0" speed="3.65" length="1.44" shape="1330.45,529.49 1329.38,528.52"/>
    </edge>
    <edge id=":122_9" function="internal">
        <lane id=":122_9_0" index="0" speed="3.65" length="3.23" shape="1329.38,528.52 1329.10,527.67 1329.61,526.94 1330.92,526.33"/>
    </edge>
    <edge id=":122_3" function="internal">
        <lane id=":122_3_0" index="0" speed="7.22" length="8.24" shape="1325.12,521.26 1325.84,523.21 1327.04,524.70 1328.73,525.74 1330.92,526.33"/>
    </edge>
    <edge id=":122_4" function="internal">
        <lane id=":122_4_0" index="0" speed="13.89" length="12.20" shape="1325.12,521.26 1325.67,524.53 1325.72,527.31 1325.27,530.06 1324.32,533.24"/>
    </edge>
    <edge id=":122_5" function="internal">
        <lane id=":122_5_0" index="0" speed="3.65" length="1.44" shape="1325.12,521.26 1324.59,522.60"/>
    </edge>
    <edge id=":122_10" function="internal">
        <lane id=":122_10_0" index="0" speed="3.65" length="3.23" shape="1324.59,522.60 1323.90,523.16 1323.03,522.94 1321.99,521.93"/>
    </edge>
    <edge id=":122_6" function="internal">
        <lane id=":122_6_0" index="0" speed="13.89" length="10.53" shape="1321.29,532.22 1322.22,529.30 1322.64,527.13 1322.55,524.94 1321.99,521.93"/>
    </edge>
    <edge id=":122_7" function="internal">
        <lane id=":122_7_0" index="0" speed="8.05" length="3.47" shape="1321.29,532.22 1322.77,529.24 1322.88,529.14"/>
    </edge>
    <edge id=":122_8" function="internal">
        <lane id=":122_8_0" index="0" speed="3.65" length="1.44" shape="1321.29,532.22 1322.43,531.34"/>
    </edge>
    <edge id=":122_11" function="internal">
        <lane id=":122_11_0" index="0" speed="8.05" length="8.95" shape="1322.88,529.14 1324.87,527.26 1327.59,526.29 1330.92,526.33"/>
    </edge>
    <edge id=":122_12" function="internal">
        <lane id=":122_12_0" index="0" speed="3.65" length="3.23" shape="1322.43,531.34 1323.32,531.21 1323.95,531.85 1324.32,533.24"/>
    </edge>
    <edge id=":124_0" function="internal">
        <lane id=":124_0_0" index="0" speed="7.52" length="11.13" shape="1407.52,817.10 1405.31,815.01 1402.92,814.01 1400.37,814.09 1397.66,815.25"/>
    </edge>
    <edge id=":124_1" function="internal">
        <lane id=":124_1_0" index="0" speed="13.89" length="15.98" shape="1407.52,817.10 1396.99,805.07"/>
    </edge>
    <edge id=":124_2" function="internal">
        <lane id=":124_2_0" index="0" speed="7.62" length="3.99" shape="1407.52,817.10 1405.47,813.67"/>
    </edge>
    <edge id=":124_3" function="internal">
        <lane id=":124_3_0" index="0" speed="3.65" length="1.44" shape="1407.52,817.10 1407.39,815.66"/>
    </edge>
    <edge id=":124_16" function="internal">
        <lane id=":124_16_0" index="0" speed="7.62" length="11.30" shape="1405.47,813.67 1405.28,813.35 1405.02,810.08 1406.73,807.28 1410.41,804.95"/>
    </edge>
    <edge id=":124_17" function="internal">
        <lane id=":124_17_0" index="0" speed="3.65" length="3.23" shape="1407.39,815.66 1407.75,814.84 1408.63,814.65 1410.00,815.08"/>
    </edge>
    <edge id=":124_4" function="internal">
        <lane id=":124_4_0" index="0" speed="6.02" length="9.08" shape="1411.72,807.87 1409.53,809.25 1408.52,810.91 1408.68,812.86 1410.00,815.08"/>
    </edge>
    <edge id=":124_5" function="internal">
        <lane id=":124_5_0" index="0" speed="13.89" length="15.89" shape="1411.72,807.87 1408.20,809.52 1404.58,811.35 1401.01,813.29 1397.66,815.25"/>
    </edge>
    <edge id=":124_6" function="internal">
        <lane id=":124_6_0" index="0" speed="9.76" length="16.11" shape="1411.72,807.87 1407.62,809.12 1403.80,809.07 1400.26,807.72 1396.99,805.07"/>
    </edge>
    <edge id=":124_7" function="internal">
        <lane id=":124_7_0" index="0" speed="3.65" length="4.67" shape="1411.72,807.87 1410.30,807.63 1409.61,807.06 1409.64,806.17 1410.41,804.95"/>
    </edge>
    <edge id=":124_8" function="internal">
        <lane id=":124_8_0" index="0" speed="8.54" length="12.12" shape="1399.32,802.87 1401.77,804.86 1404.43,805.87 1407.31,805.90 1410.41,804.95"/>
    </edge>
    <edge id=":124_9" function="internal">
        <lane id=":124_9_0" index="0" speed="13.89" length="16.23" shape="1399.32,802.87 1410.00,815.08"/>
    </edge>
    <edge id=":124_10" function="internal">
        <lane id=":124_10_0" index="0" speed="7.68" length="4.58" shape="1399.32,802.87 1401.77,806.35 1401.83,806.67"/>
    </edge>
    <edge id=":124_11" function="internal">
        <lane id=":124_11_0" index="0" speed="3.65" length="1.44" shape="1399.32,802.87 1399.56,804.29"/>
    </edge>
    <edge id=":124_18" function="internal">
        <lane id=":124_18_0" index="0" speed="7.68" length="10.47" shape="1401.83,806.67 1402.31,809.57 1400.94,812.54 1397.66,815.25"/>
    </edge>
    <edge id=":124_19" function="internal">
        <lane id=":124_19_0" index="0" speed="3.65" length="3.23" shape="1399.56,804.29 1399.25,805.13 1398.40,805.39 1396.99,805.07"/>
    </edge>
    <edge id=":124_12" function="internal">
        <lane id=":124_12_0" index="0" speed="6.10" length="9.06" shape="1395.99,812.52 1397.97,810.89 1398.80,809.10 1398.47,807.16 1396.99,805.07"/>
    </edge>
    <edge id=":124_13" function="internal">
        <lane id=":124_13_0" index="0" speed="13.89" length="16.29" shape="1395.99,812.52 1399.41,810.53 1403.09,808.53 1406.83,806.63 1410.41,804.95"/>
    </edge>
    <edge id=":124_14" function="internal">
        <lane id=":124_14_0" index="0" speed="8.86" length="15.80" shape="1395.99,812.52 1399.86,810.86 1403.49,810.73 1406.87,812.14 1410.00,815.08"/>
    </edge>
    <edge id=":124_15" function="internal">
        <lane id=":124_15_0" index="0" speed="3.65" length="4.67" shape="1395.99,812.52 1397.43,812.58 1398.19,813.05 1398.27,813.95 1397.66,815.25"/>
    </edge>
    <edge id=":127_0" function="internal">
        <lane id=":127_0_0" index="0" speed="6.08" length="9.01" shape="1231.90,1040.81 1229.41,1041.37 1227.50,1040.93 1226.18,1039.49 1225.44,1037.05"/>
    </edge>
    <edge id=":127_1" function="internal">
        <lane id=":127_1_0" index="0" speed="3.65" length="1.44" shape="1231.90,1040.81 1230.49,1040.49"/>
    </edge>
    <edge id=":127_4" function="internal">
        <lane id=":127_4_0" index="0" speed="3.65" length="3.23" shape="1230.49,1040.49 1229.83,1039.89 1229.92,1039.00 1230.76,1037.82"/>
    </edge>
    <edge id=":127_2" function="internal">
        <lane id=":127_2_0" index="0" speed="3.91" length="3.00" shape="1228.61,1036.57 1228.85,1037.38 1229.29,1037.86 1229.93,1038.01 1230.76,1037.82"/>
    </edge>
    <edge id=":127_3" function="internal">
        <lane id=":127_3_0" index="0" speed="3.65" length="1.30" shape="1228.61,1036.57 1228.05,1037.75"/>
    </edge>
    <edge id=":127_5" function="internal">
        <lane id=":127_5_0" index="0" speed="3.65" length="3.37" shape="1228.05,1037.75 1227.99,1037.87 1227.26,1038.39 1226.41,1038.11 1225.44,1037.05"/>
    </edge>
    <edge id=":14_0" function="internal">
        <lane id=":14_0_0" index="0" speed="7.36" length="11.11" shape="770.43,385.22 768.70,382.16 766.73,380.23 764.51,379.44 762.05,379.77"/>
    </edge>
    <edge id=":14_1" function="internal">
        <lane id=":14_1_0" index="0" speed="7.41" length="16.65" shape="770.43,385.22 769.04,380.44 769.77,377.17 772.62,375.42 777.59,375.17"/>
    </edge>
    <edge id=":14_2" function="internal">
        <lane id=":14_2_0" index="0" speed="3.65" length="1.44" shape="770.43,385.22 770.67,383.80"/>
    </edge>
    <edge id=":14_9" function="internal">
        <lane id=":14_9_0" index="0" speed="3.65" length="3.23" shape="770.67,383.80 771.24,383.11 772.14,383.15 773.35,383.92"/>
    </edge>
    <edge id=":14_3" function="internal">
        <lane id=":14_3_0" index="0" speed="5.69" length="9.22" shape="777.32,378.36 774.57,378.50 772.99,379.47 772.58,381.28 773.35,383.92"/>
    </edge>
    <edge id=":14_4" function="internal">
        <lane id=":14_4_0" index="0" speed="13.89" length="15.44" shape="777.32,378.36 773.49,378.17 769.58,378.29 765.72,378.80 762.05,379.77"/>
    </edge>
    <edge id=":14_5" function="internal">
        <lane id=":14_5_0" index="0" speed="3.65" length="1.44" shape="777.32,378.36 776.19,377.46"/>
    </edge>
    <edge id=":14_10" function="internal">
        <lane id=":14_10_0" index="0" speed="3.65" length="3.23" shape="776.19,377.46 775.86,376.63 776.33,375.87 777.59,375.17"/>
    </edge>
    <edge id=":14_6" function="internal">
        <lane id=":14_6_0" index="0" speed="13.89" length="16.77" shape="760.99,376.75 764.88,375.75 769.19,375.19 773.56,375.01 777.59,375.17"/>
    </edge>
    <edge id=":14_7" function="internal">
        <lane id=":14_7_0" index="0" speed="8.71" length="4.22" shape="760.99,376.75 764.75,376.16 765.15,376.28"/>
    </edge>
    <edge id=":14_8" function="internal">
        <lane id=":14_8_0" index="0" speed="3.65" length="1.44" shape="760.99,376.75 762.39,377.11"/>
    </edge>
    <edge id=":14_11" function="internal">
        <lane id=":14_11_0" index="0" speed="8.71" length="11.74" shape="765.15,376.28 768.06,377.15 770.93,379.74 773.35,383.92"/>
    </edge>
    <edge id=":14_12" function="internal">
        <lane id=":14_12_0" index="0" speed="3.65" length="3.23" shape="762.39,377.11 763.03,377.73 762.91,378.62 762.05,379.77"/>
    </edge>
    <edge id=":18_0" function="internal">
        <lane id=":18_0_0" index="0" speed="8.64" length="11.94" shape="1278.30,679.47 1276.29,678.05 1273.75,677.48 1270.67,677.76 1267.07,678.89"/>
    </edge>
    <edge id=":18_1" function="internal">
        <lane id=":18_1_0" index="0" speed="13.89" length="15.38" shape="1278.30,679.47 1275.62,676.77 1272.76,674.14 1269.83,671.61 1266.89,669.18"/>
    </edge>
    <edge id=":18_2" function="internal">
        <lane id=":18_2_0" index="0" speed="10.28" length="3.55" shape="1278.30,679.47 1276.35,676.63 1276.32,676.53"/>
    </edge>
    <edge id=":18_3" function="internal">
        <lane id=":18_3_0" index="0" speed="3.65" length="1.44" shape="1278.30,679.47 1278.06,678.05"/>
    </edge>
    <edge id=":18_16" function="internal">
        <lane id=":18_16_0" index="0" speed="10.28" length="11.57" shape="1276.32,676.53 1275.39,673.31 1275.42,669.50 1276.45,665.21"/>
    </edge>
    <edge id=":18_17" function="internal">
        <lane id=":18_17_0" index="0" speed="3.65" length="3.23" shape="1278.06,678.05 1278.37,677.21 1279.22,676.95 1280.63,677.27"/>
    </edge>
    <edge id=":18_4" function="internal">
        <lane id=":18_4_0" index="0" speed="9.09" length="11.66" shape="1279.49,666.24 1278.64,669.64 1278.55,672.62 1279.21,675.16 1280.63,677.27"/>
    </edge>
    <edge id=":18_5" function="internal">
        <lane id=":18_5_0" index="0" speed="13.11" length="18.30" shape="1279.49,666.24 1277.59,670.35 1274.89,673.83 1271.38,676.67 1267.07,678.89"/>
    </edge>
    <edge id=":18_6" function="internal">
        <lane id=":18_6_0" index="0" speed="7.65" length="5.81" shape="1279.49,666.24 1277.39,670.30 1276.36,670.98"/>
    </edge>
    <edge id=":18_7" function="internal">
        <lane id=":18_7_0" index="0" speed="3.65" length="1.44" shape="1279.49,666.24 1278.34,667.12"/>
    </edge>
    <edge id=":18_18" function="internal">
        <lane id=":18_18_0" index="0" speed="7.65" length="10.57" shape="1276.36,670.98 1274.59,672.14 1271.09,671.77 1266.89,669.18"/>
    </edge>
    <edge id=":18_19" function="internal">
        <lane id=":18_19_0" index="0" speed="3.65" length="3.23" shape="1278.34,667.12 1277.46,667.24 1276.83,666.61 1276.45,665.21"/>
    </edge>
    <edge id=":18_8" function="internal">
        <lane id=":18_8_0" index="0" speed="6.04" length="9.72" shape="1268.90,666.69 1271.45,668.29 1273.56,668.57 1275.23,667.55 1276.45,665.21"/>
    </edge>
    <edge id=":18_9" function="internal">
        <lane id=":18_9_0" index="0" speed="13.89" length="15.80" shape="1268.90,666.69 1271.89,669.17 1274.93,671.80 1277.89,674.53 1280.63,677.27"/>
    </edge>
    <edge id=":18_10" function="internal">
        <lane id=":18_10_0" index="0" speed="7.41" length="4.99" shape="1268.90,666.69 1272.33,670.33"/>
    </edge>
    <edge id=":18_11" function="internal">
        <lane id=":18_11_0" index="0" speed="3.65" length="1.44" shape="1268.90,666.69 1269.33,668.07"/>
    </edge>
    <edge id=":18_20" function="internal">
        <lane id=":18_20_0" index="0" speed="7.41" length="11.69" shape="1272.33,670.33 1273.16,673.57 1271.41,676.42 1267.07,678.89"/>
    </edge>
    <edge id=":18_21" function="internal">
        <lane id=":18_21_0" index="0" speed="3.65" length="3.23" shape="1269.33,668.07 1269.14,668.95 1268.32,669.31 1266.89,669.18"/>
    </edge>
    <edge id=":18_12" function="internal">
        <lane id=":18_12_0" index="0" speed="5.69" length="9.22" shape="1265.87,675.92 1268.27,674.56 1269.24,672.98 1268.78,671.19 1266.89,669.18"/>
    </edge>
    <edge id=":18_13" function="internal">
        <lane id=":18_13_0" index="0" speed="12.11" length="15.54" shape="1265.87,675.92 1269.56,674.03 1272.55,671.62 1274.85,668.68 1276.45,665.21"/>
    </edge>
    <edge id=":18_14" function="internal">
        <lane id=":18_14_0" index="0" speed="9.86" length="3.92" shape="1265.87,675.92 1269.62,674.78"/>
    </edge>
    <edge id=":18_15" function="internal">
        <lane id=":18_15_0" index="0" speed="3.65" length="1.44" shape="1265.87,675.92 1267.29,676.21"/>
    </edge>
    <edge id=":18_22" function="internal">
        <lane id=":18_22_0" index="0" speed="9.86" length="11.86" shape="1269.62,674.78 1270.46,674.53 1274.44,674.29 1277.83,675.21 1280.63,677.27"/>
    </edge>
    <edge id=":18_23" function="internal">
        <lane id=":18_23_0" index="0" speed="3.65" length="3.23" shape="1267.29,676.21 1267.96,676.81 1267.88,677.70 1267.07,678.89"/>
    </edge>
    <edge id=":2_0" function="internal">
        <lane id=":2_0_0" index="0" speed="13.89" length="15.15" shape="828.98,521.82 828.08,518.15 827.09,514.47 825.93,510.85 824.55,507.35"/>
    </edge>
    <edge id=":2_1" function="internal">
        <lane id=":2_1_0" index="0" speed="7.38" length="5.11" shape="828.98,521.82 828.42,516.73"/>
    </edge>
    <edge id=":2_2" function="internal">
        <lane id=":2_2_0" index="0" speed="3.65" length="1.44" shape="828.98,521.82 829.48,520.46"/>
    </edge>
    <edge id=":2_9" function="internal">
        <lane id=":2_9_0" index="0" speed="7.38" length="12.40" shape="828.42,516.73 828.40,516.48 829.74,513.37 833.01,512.49 838.20,513.82"/>
    </edge>
    <edge id=":2_10" function="internal">
        <lane id=":2_10_0" index="0" speed="3.65" length="3.23" shape="829.48,520.46 830.16,519.89 831.03,520.09 832.09,521.07"/>
    </edge>
    <edge id=":2_3" function="internal">
        <lane id=":2_3_0" index="0" speed="5.58" length="9.36" shape="837.02,516.80 834.24,516.08 832.50,516.56 831.78,518.22 832.09,521.07"/>
    </edge>
    <edge id=":2_4" function="internal">
        <lane id=":2_4_0" index="0" speed="13.26" length="15.99" shape="837.02,516.80 833.40,515.18 829.80,513.09 826.70,510.49 824.55,507.35"/>
    </edge>
    <edge id=":2_5" function="internal">
        <lane id=":2_5_0" index="0" speed="3.65" length="4.67" shape="837.02,516.80 836.20,515.61 836.13,514.72 836.79,514.12 838.20,513.82"/>
    </edge>
    <edge id=":2_6" function="internal">
        <lane id=":2_6_0" index="0" speed="12.27" length="13.63" shape="827.47,506.05 829.35,508.93 831.86,510.96 834.85,512.47 838.20,513.82"/>
    </edge>
    <edge id=":2_7" function="internal">
        <lane id=":2_7_0" index="0" speed="13.89" length="15.73" shape="827.47,506.05 828.89,509.64 830.10,513.45 831.16,517.31 832.09,521.07"/>
    </edge>
    <edge id=":2_8" function="internal">
        <lane id=":2_8_0" index="0" speed="3.65" length="1.44" shape="827.47,506.05 827.23,507.47"/>
    </edge>
    <edge id=":2_11" function="internal">