<?xml version="1.0" encoding="UTF-8"?>

<!-- generated on 2024-12-20 18:49:48 by Eclipse SUMO netedit Version 1.21.0
<neteditConfiguration xmlns:xsi="http://www.w3.org/2001/XMLSchema-instance" xsi:noNamespaceSchemaLocation="http://sumo.dlr.de/xsd/neteditConfiguration.xsd">

    <input>
        <sumo-net-file value="C:\Users\zelal\Repositories\Intelligent-Traffic-Agent\CustomNetworks\ChosenNetwork.net.xml"/>
    </input>

    <output>
        <output-file value="C:\Users\zelal\Repositories\Intelligent-Traffic-Agent\CustomNetworks\ChosenNetwork.net.xml"/>
    </output>

    <processing>
        <geometry.min-radius.fix.railways value="false"/>
        <geometry.max-grade.fix value="false"/>
        <offset.disable-normalization value="true"/>
        <lefthand value="0"/>
    </processing>

    <junctions>
        <no-turnarounds value="true"/>
        <junctions.corner-detail value="5"/>
        <junctions.limit-turn-speed value="5.50"/>
        <rectangular-lane-cut value="0"/>
    </junctions>

    <pedestrian>
        <walkingareas value="0"/>
    </pedestrian>

</neteditConfiguration>
-->

<net version="1.20" junctionCornerDetail="5" limitTurnSpeed="5.50" xmlns:xsi="http://www.w3.org/2001/XMLSchema-instance" xsi:noNamespaceSchemaLocation="http://sumo.dlr.de/xsd/net_file.xsd">

    <location netOffset="801.97,1257.99" convBoundary="0.00,0.00,1780.40,1978.15" origBoundary="-801.97,-1257.99,978.43,720.16" projParameter="!"/>

    <edge id=":1_0" function="internal">
        <lane id=":1_0_0" index="0" speed="5.98" length="9.08" shape="797.37,1270.61 796.96,1268.04 795.83,1266.46 793.98,1265.88 791.41,1266.29"/>
    </edge>
    <edge id=":1_1" function="internal">
        <lane id=":1_1_0" index="0" speed="13.89" length="21.78" shape="797.37,1270.61 797.25,1264.44 796.98,1259.90 796.31,1255.40 794.97,1249.39"/>
        <lane id=":1_1_1" index="1" speed="13.89" length="21.78" shape="800.57,1270.56 800.44,1264.28 800.14,1259.50 799.43,1254.76 798.08,1248.64"/>
    </edge>
    <edge id=":1_3" function="internal">
        <lane id=":1_3_0" index="0" speed="9.49" length="5.41" shape="800.57,1270.56 801.16,1265.18"/>
    </edge>
    <edge id=":1_4" function="internal">
        <lane id=":1_4_0" index="0" speed="3.65" length="1.44" shape="800.57,1270.56 801.35,1269.35"/>
    </edge>
    <edge id=":1_20" function="internal">
        <lane id=":1_20_0" index="0" speed="9.49" length="15.80" shape="801.16,1265.18 801.25,1264.36 803.51,1260.00 807.35,1257.48 812.78,1256.80"/>
    </edge>
    <edge id=":1_21" function="internal">
        <lane id=":1_21_0" index="0" speed="3.65" length="3.23" shape="801.35,1269.35 802.14,1268.93 802.95,1269.32 803.77,1270.51"/>
    </edge>
    <edge id=":1_5" function="internal">
        <lane id=":1_5_0" index="0" speed="6.84" length="10.50" shape="812.53,1263.19 810.05,1263.57 808.30,1264.90 807.27,1267.20 806.97,1270.46"/>
    </edge>
    <edge id=":1_6" function="internal">
        <lane id=":1_6_0" index="0" speed="13.89" length="22.05" shape="812.53,1263.19 806.36,1263.10 801.81,1263.49 797.33,1264.50 791.41,1266.29"/>
        <lane id=":1_6_1" index="1" speed="13.89" length="22.05" shape="812.65,1260.00 806.31,1259.93 801.39,1260.36 796.55,1261.43 790.46,1263.24"/>
    </edge>
    <edge id=":1_8" function="internal">
        <lane id=":1_8_0" index="0" speed="10.52" length="4.62" shape="812.65,1260.00 808.10,1259.25"/>
    </edge>
    <edge id=":1_9" function="internal">
        <lane id=":1_9_0" index="0" speed="3.65" length="1.44" shape="812.65,1260.00 811.49,1259.15"/>
    </edge>
    <edge id=":1_22" function="internal">
        <lane id=":1_22_0" index="0" speed="10.52" length="15.41" shape="808.10,1259.25 807.26,1259.12 803.03,1256.93 799.97,1253.44 798.08,1248.64"/>
    </edge>
    <edge id=":1_23" function="internal">
        <lane id=":1_23_0" index="0" speed="3.65" length="3.23" shape="811.49,1259.15 811.12,1258.34 811.55,1257.55 812.78,1256.80"/>
    </edge>
    <edge id=":1_10" function="internal">
        <lane id=":1_10_0" index="0" speed="8.14" length="11.64" shape="804.30,1247.15 805.40,1249.87 807.19,1251.85 809.69,1253.10 812.90,1253.60"/>
    </edge>
    <edge id=":1_11" function="internal">
        <lane id=":1_11_0" index="0" speed="13.89" length="23.18" shape="804.30,1247.15 805.68,1253.49 806.45,1258.70 806.81,1263.97 806.97,1270.46"/>
        <lane id=":1_11_1" index="1" speed="13.89" length="23.18" shape="801.19,1247.90 802.56,1254.13 803.30,1259.10 803.63,1264.13 803.77,1270.51"/>
    </edge>
    <edge id=":1_13" function="internal">
        <lane id=":1_13_0" index="0" speed="9.86" length="4.68" shape="801.19,1247.90 801.50,1252.57"/>
    </edge>
    <edge id=":1_14" function="internal">
        <lane id=":1_14_0" index="0" speed="3.65" length="1.44" shape="801.19,1247.90 800.69,1249.25"/>
    </edge>
    <edge id=":1_24" function="internal">
        <lane id=":1_24_0" index="0" speed="9.86" length="16.32" shape="801.50,1252.57 801.53,1253.05 799.85,1257.32 796.16,1260.72 790.46,1263.24"/>
    </edge>
    <edge id=":1_25" function="internal">
        <lane id=":1_25_0" index="0" speed="3.65" length="3.23" shape="800.69,1249.25 800.01,1249.83 799.14,1249.62 798.08,1248.64"/>
    </edge>
    <edge id=":1_15" function="internal">
        <lane id=":1_15_0" index="0" speed="7.34" length="11.19" shape="788.57,1257.12 791.85,1255.75 794.01,1254.00 795.05,1251.88 794.97,1249.39"/>
    </edge>
    <edge id=":1_16" function="internal">
        <lane id=":1_16_0" index="0" speed="13.89" length="24.20" shape="788.57,1257.12 794.99,1255.27 800.57,1254.11 806.22,1253.57 812.90,1253.60"/>
        <lane id=":1_16_1" index="1" speed="13.89" length="24.20" shape="789.51,1260.18 795.77,1258.35 800.98,1257.24 806.27,1256.75 812.78,1256.80"/>
    </edge>
    <edge id=":1_18" function="internal">
        <lane id=":1_18_0" index="0" speed="8.91" length="5.47" shape="789.51,1260.18 794.91,1259.31"/>
    </edge>
    <edge id=":1_19" function="internal">
        <lane id=":1_19_0" index="0" speed="3.65" length="1.44" shape="789.51,1260.18 790.90,1260.59"/>
    </edge>
    <edge id=":1_26" function="internal">
        <lane id=":1_26_0" index="0" speed="8.91" length="16.27" shape="794.91,1259.31 795.66,1259.19 800.09,1260.59 802.79,1264.36 803.77,1270.51"/>
    </edge>
    <edge id=":1_27" function="internal">
        <lane id=":1_27_0" index="0" speed="3.65" length="3.23" shape="790.90,1260.59 791.52,1261.23 791.37,1262.12 790.46,1263.24"/>
    </edge>
    <edge id=":10_0" function="internal">
        <lane id=":10_0_0" index="0" speed="11.22" length="16.71" shape="578.32,1332.41 574.71,1334.09 571.77,1336.67 569.51,1340.16 567.93,1344.54"/>
    </edge>
    <edge id=":10_1" function="internal">
        <lane id=":10_1_0" index="0" speed="13.89" length="24.34" shape="578.32,1332.41 571.90,1334.23 566.33,1335.38 560.68,1336.05 554.00,1336.47"/>
        <lane id=":10_1_1" index="1" speed="13.89" length="24.34" shape="577.38,1329.36 571.08,1331.15 565.78,1332.25 560.40,1332.88 553.86,1333.27"/>
    </edge>
    <edge id=":10_3" function="internal">
        <lane id=":10_3_0" index="0" speed="9.24" length="5.39" shape="577.38,1329.36 572.05,1330.17"/>
    </edge>
    <edge id=":10_4" function="internal">
        <lane id=":10_4_0" index="0" speed="3.65" length="1.44" shape="577.38,1329.36 575.99,1328.95"/>
    </edge>
    <edge id=":10_20" function="internal">
        <lane id=":10_20_0" index="0" speed="9.24" length="15.12" shape="572.05,1330.17 571.89,1330.19 567.56,1328.93 564.39,1325.56 562.38,1320.10"/>
    </edge>
    <edge id=":10_21" function="internal">
        <lane id=":10_21_0" index="0" speed="3.65" length="3.23" shape="575.99,1328.95 575.37,1328.30 575.52,1327.42 576.43,1326.30"/>
    </edge>
    <edge id=":10_5" function="internal">
        <lane id=":10_5_0" index="0" speed="6.48" length="9.54" shape="568.63,1318.73 569.57,1321.34 571.03,1322.97 573.00,1323.60 575.48,1323.25"/>
    </edge>
    <edge id=":10_6" function="internal">
        <lane id=":10_6_0" index="0" speed="13.89" length="25.36" shape="568.63,1318.73 569.78,1325.52 570.02,1331.66 569.39,1337.79 567.93,1344.54"/>
        <lane id=":10_6_1" index="1" speed="13.89" length="25.36" shape="565.50,1319.42 566.65,1325.98 566.90,1331.61 566.29,1337.23 564.83,1343.74"/>
    </edge>
    <edge id=":10_8" function="internal">
        <lane id=":10_8_0" index="0" speed="9.19" length="21.54" shape="565.50,1319.42 565.86,1325.22 564.04,1329.47 560.04,1332.15 553.86,1333.27"/>
    </edge>
    <edge id=":10_9" function="internal">
        <lane id=":10_9_0" index="0" speed="3.65" length="4.67" shape="565.50,1319.42 564.98,1320.76 564.28,1321.32 563.42,1321.10 562.38,1320.10"/>
    </edge>
    <edge id=":10_10" function="internal">
        <lane id=":10_10_0" index="0" speed="6.42" length="9.89" shape="553.56,1326.88 556.52,1326.37 558.46,1325.19 559.37,1323.33 559.25,1320.79"/>
    </edge>
    <edge id=":10_11" function="internal">
        <lane id=":10_11_0" index="0" speed="13.89" length="22.72" shape="553.56,1326.88 559.85,1326.53 564.68,1326.00 569.43,1325.00 575.48,1323.25"/>
        <lane id=":10_11_1" index="1" speed="13.89" length="22.72" shape="553.71,1330.07 560.13,1329.70 565.23,1329.12 570.25,1328.08 576.43,1326.30"/>
    </edge>
    <edge id=":10_13" function="internal">
        <lane id=":10_13_0" index="0" speed="8.90" length="4.61" shape="553.71,1330.07 558.30,1330.51"/>
    </edge>
    <edge id=":10_14" function="internal">
        <lane id=":10_14_0" index="0" speed="3.65" length="1.44" shape="553.71,1330.07 554.94,1330.82"/>
    </edge>
    <edge id=":10_22" function="internal">
        <lane id=":10_22_0" index="0" speed="8.90" length="17.24" shape="558.30,1330.51 559.96,1330.67 563.89,1333.14 565.52,1337.50 564.83,1343.74"/>
    </edge>
    <edge id=":10_23" function="internal">
        <lane id=":10_23_0" index="0" speed="3.65" length="3.23" shape="554.94,1330.82 555.38,1331.60 555.02,1332.41 553.86,1333.27"/>
    </edge>
    <edge id=":10_15" function="internal">
        <lane id=":10_15_0" index="0" speed="5.96" length="9.09" shape="558.63,1342.15 558.92,1339.56 558.24,1337.74 556.60,1336.71 554.00,1336.47"/>
    </edge>
    <edge id=":10_16" function="internal">
        <lane id=":10_16_0" index="0" speed="13.89" length="22.42" shape="558.63,1342.15 560.08,1336.10 560.68,1331.50 560.41,1326.89 559.25,1320.79"/>
        <lane id=":10_16_1" index="1" speed="13.89" length="22.42" shape="561.73,1342.95 563.18,1336.66 563.79,1331.56 563.53,1326.43 562.38,1320.10"/>
    </edge>
    <edge id=":10_18" function="internal">
        <lane id=":10_18_0" index="0" speed="13.17" length="23.24" shape="561.73,1342.95 563.91,1336.98 567.09,1332.22 571.26,1328.66 576.43,1326.30"/>
    </edge>
    <edge id=":10_19" function="internal">
        <lane id=":10_19_0" index="0" speed="3.65" length="4.67" shape="561.73,1342.95 562.80,1341.98 563.68,1341.79 564.35,1342.38 564.83,1343.74"/>
    </edge>
    <edge id=":14_0" function="internal">
        <lane id=":14_0_0" index="0" speed="13.89" length="17.55" shape="640.79,777.35 638.84,772.74 637.36,769.59 635.34,766.83 631.77,763.40"/>
        <lane id=":14_0_1" index="1" speed="13.89" length="17.55" shape="643.72,776.05 641.59,771.07 639.96,767.67 637.76,764.70 633.89,761.00"/>
    </edge>
    <edge id=":14_2" function="internal">
        <lane id=":14_2_0" index="0" speed="8.99" length="5.42" shape="643.72,776.05 642.25,770.83"/>
    </edge>
    <edge id=":14_3" function="internal">
        <lane id=":14_3_0" index="0" speed="3.65" length="1.44" shape="643.72,776.05 643.96,774.63"/>
    </edge>
    <edge id=":14_11" function="internal">
        <lane id=":14_11_0" index="0" speed="8.99" length="15.53" shape="642.25,770.83 642.11,770.36 642.89,765.86 646.05,762.57 651.58,760.48"/>
    </edge>
    <edge id=":14_12" function="internal">
        <lane id=":14_12_0" index="0" speed="3.65" length="3.23" shape="643.96,774.63 644.53,773.94 645.42,773.98 646.64,774.76"/>
    </edge>
    <edge id=":14_4" function="internal">
        <lane id=":14_4_0" index="0" speed="6.12" length="9.06" shape="652.97,766.73 650.58,767.63 649.21,769.06 648.87,771.00 649.57,773.46"/>
    </edge>
    <edge id=":14_5" function="internal">
        <lane id=":14_5_0" index="0" speed="12.65" length="19.24" shape="652.28,763.60 646.50,764.47 641.51,764.32 637.31,763.16 633.89,761.00"/>
    </edge>
    <edge id=":14_6" function="internal">
        <lane id=":14_6_0" index="0" speed="3.65" length="2.34" shape="652.28,763.60 650.93,763.08 650.37,762.39"/>
    </edge>
    <edge id=":14_13" function="internal">
        <lane id=":14_13_0" index="0" speed="3.65" length="2.34" shape="650.37,762.39 650.59,761.52 651.58,760.48"/>
    </edge>
    <edge id=":14_7" function="internal">
        <lane id=":14_7_0" index="0" speed="10.56" length="13.23" shape="638.13,756.20 640.28,757.47 643.12,758.08 646.66,758.04 650.89,757.36"/>
    </edge>
    <edge id=":14_8" function="internal">
        <lane id=":14_8_0" index="0" speed="13.89" length="20.31" shape="638.13,756.20 642.51,760.40 645.14,763.88 647.12,767.84 649.57,773.46"/>
        <lane id=":14_8_1" index="1" speed="13.89" length="20.31" shape="636.01,758.60 640.18,762.58 642.57,765.76 644.35,769.40 646.64,774.76"/>
    </edge>
    <edge id=":14_10" function="internal">
        <lane id=":14_10_0" index="0" speed="3.65" length="1.44" shape="636.01,758.60 636.38,759.99"/>
    </edge>
    <edge id=":14_14" function="internal">
        <lane id=":14_14_0" index="0" speed="3.65" length="3.23" shape="636.38,759.99 636.15,760.86 635.32,761.19 633.89,761.00"/>
    </edge>
    <edge id=":18_0" function="internal">
        <lane id=":18_0_0" index="0" speed="10.54" length="16.37" shape="868.20,723.81 865.98,722.21 862.63,721.46 858.14,721.55 852.51,722.50"/>
    </edge>
    <edge id=":18_1" function="internal">
        <lane id=":18_1_0" index="0" speed="13.89" length="23.50" shape="868.20,723.81 864.04,718.87 860.53,715.02 856.88,711.30 852.30,706.74"/>
        <lane id=":18_1_1" index="1" speed="13.89" length="23.50" shape="870.68,721.79 866.49,716.81 862.90,712.88 859.18,709.08 854.57,704.48"/>
    </edge>
    <edge id=":18_3" function="internal">
        <lane id=":18_3_0" index="0" speed="11.44" length="4.70" shape="870.68,721.79 868.53,717.89 868.49,717.65"/>
    </edge>
    <edge id=":18_4" function="internal">
        <lane id=":18_4_0" index="0" speed="3.65" length="1.44" shape="870.68,721.79 870.54,720.35"/>
    </edge>
    <edge id=":18_19" function="internal">
        <lane id=":18_19_0" index="0" speed="11.44" length="15.92" shape="868.49,717.65 867.89,713.34 868.77,708.15 871.17,702.32"/>
    </edge>
    <edge id=":18_20" function="internal">
        <lane id=":18_20_0" index="0" speed="3.65" length="3.23" shape="870.54,720.35 870.91,719.54 871.78,719.34 873.16,719.76"/>
    </edge>
    <edge id=":18_5" function="internal">
        <lane id=":18_5_0" index="0" speed="9.24" length="13.21" shape="876.86,705.25 875.13,709.25 874.35,712.66 874.52,715.49 875.64,717.74"/>
    </edge>
    <edge id=":18_6" function="internal">
        <lane id=":18_6_0" index="0" speed="13.89" length="28.02" shape="874.02,703.78 870.31,709.28 865.37,713.71 859.21,717.07 851.82,719.38"/>
    </edge>
    <edge id=":18_7" function="internal">
        <lane id=":18_7_0" index="0" speed="9.29" length="24.14" shape="874.02,703.78 870.23,708.83 865.73,710.62 860.51,709.18 854.57,704.48"/>
    </edge>
    <edge id=":18_8" function="internal">
        <lane id=":18_8_0" index="0" speed="3.65" length="4.67" shape="874.02,703.78 872.76,704.49 871.86,704.48 871.34,703.75 871.17,702.32"/>
    </edge>
    <edge id=":18_9" function="internal">
        <lane id=":18_9_0" index="0" speed="6.54" length="11.31" shape="859.10,699.96 862.08,702.42 864.60,703.39 866.69,702.87 868.33,700.86"/>
    </edge>
    <edge id=":18_10" function="internal">
        <lane id=":18_10_0" index="0" speed="13.89" length="24.32" shape="859.10,699.96 863.78,704.64 867.65,708.60 871.39,712.69 875.64,717.74"/>
        <lane id=":18_10_1" index="1" speed="13.89" length="24.32" shape="859.10,699.96 863.39,704.95 866.41,709.61 869.29,714.40 873.16,719.76"/>
    </edge>
    <edge id=":18_12" function="internal">
        <lane id=":18_12_0" index="0" speed="8.81" length="5.38" shape="856.84,702.22 860.11,706.49"/>
    </edge>
    <edge id=":18_13" function="internal">
        <lane id=":18_13_0" index="0" speed="3.65" length="1.44" shape="856.84,702.22 857.12,703.64"/>
    </edge>
    <edge id=":18_21" function="internal">
        <lane id=":18_21_0" index="0" speed="8.81" length="19.56" shape="860.11,706.49 861.44,708.22 862.13,713.08 858.93,716.80 851.82,719.38"/>
    </edge>
    <edge id=":18_22" function="internal">
        <lane id=":18_22_0" index="0" speed="3.65" length="3.23" shape="857.12,703.64 856.83,704.48 855.98,704.76 854.57,704.48"/>
    </edge>
    <edge id=":18_14" function="internal">
        <lane id=":18_14_0" index="0" speed="5.63" length="9.29" shape="850.44,713.13 853.08,712.17 854.28,710.78 854.02,708.97 852.30,706.74"/>
    </edge>
    <edge id=":18_15" function="internal">
        <lane id=":18_15_0" index="0" speed="13.89" length="22.40" shape="850.44,713.13 856.46,711.28 861.45,708.61 865.40,705.14 868.33,700.86"/>
        <lane id=":18_15_1" index="1" speed="13.89" length="25.21" shape="851.13,716.25 857.83,714.17 863.41,711.16 867.86,707.21 871.17,702.32"/>
    </edge>
    <edge id=":18_17" function="internal">
        <lane id=":18_17_0" index="0" speed="12.53" length="23.39" shape="851.13,716.25 858.59,715.12 864.76,715.33 869.61,716.88 873.16,719.76"/>
    </edge>
    <edge id=":18_18" function="internal">
        <lane id=":18_18_0" index="0" speed="3.65" length="4.67" shape="851.13,716.25 852.47,716.77 853.04,717.47 852.82,718.34 851.82,719.38"/>
    </edge>
    <edge id=":196_0" function="internal">
        <lane id=":196_0_0" index="0" speed="13.89" length="26.00" shape="1506.83,1084.41 1499.89,1084.46 1493.77,1085.26 1488.03,1087.24 1482.24,1090.84"/>
    </edge>
    <edge id=":196_1" function="internal">
        <lane id=":196_1_0" index="0" speed="13.89" length="31.24" shape="1506.83,1084.41 1499.00,1083.78 1490.88,1082.19 1483.08,1079.60 1476.21,1075.94"/>
        <lane id=":196_1_1" index="1" speed="13.89" length="31.24" shape="1506.91,1081.21 1499.34,1080.66 1491.81,1079.27 1484.61,1076.86 1478.01,1073.29"/>
    </edge>
    <edge id=":196_3" function="internal">
        <lane id=":196_3_0" index="0" speed="8.30" length="3.88" shape="1506.91,1081.21 1503.15,1080.26"/>
    </edge>
    <edge id=":196_4" function="internal">
        <lane id=":196_4_0" index="0" speed="3.65" length="1.44" shape="1506.91,1081.21 1505.73,1080.38"/>
    </edge>
    <edge id=":196_20" function="internal">
        <lane id=":196_20_0" index="0" speed="8.30" length="19.43" shape="1503.15,1080.26 1500.67,1079.63 1497.11,1075.81 1496.62,1070.62 1499.57,1064.90"/>
    </edge>
    <edge id=":196_21" function="internal">
        <lane id=":196_21_0" index="0" speed="3.65" length="3.23" shape="1505.73,1080.38 1505.35,1079.57 1505.77,1078.78 1506.99,1078.01"/>
    </edge>
    <edge id=":196_5" function="internal">
        <lane id=":196_5_0" index="0" speed="5.53" length="9.47" shape="1504.46,1069.03 1502.85,1071.50 1502.74,1073.28 1504.15,1074.39 1507.06,1074.81"/>
    </edge>
    <edge id=":196_6" function="internal">
        <lane id=":196_6_0" index="0" speed="13.89" length="30.84" shape="1504.46,1069.03 1499.38,1074.81 1493.91,1080.52 1488.16,1085.95 1482.24,1090.84"/>
        <lane id=":196_6_1" index="1" speed="13.89" length="30.84" shape="1502.02,1066.97 1497.02,1072.67 1491.72,1078.22 1486.14,1083.48 1480.30,1088.30"/>
    </edge>
    <edge id=":196_8" function="internal">
        <lane id=":196_8_0" index="0" speed="11.42" length="7.98" shape="1502.02,1066.97 1496.24,1072.48"/>
    </edge>
    <edge id=":196_9" function="internal">
        <lane id=":196_9_0" index="0" speed="3.65" length="1.44" shape="1502.02,1066.97 1500.63,1067.37"/>
    </edge>
    <edge id=":196_22" function="internal">
        <lane id=":196_22_0" index="0" speed="11.42" length="19.60" shape="1496.24,1072.48 1495.96,1072.75 1489.94,1075.73 1483.96,1075.91 1478.01,1073.29"/>
    </edge>
    <edge id=":196_23" function="internal">
        <lane id=":196_23_0" index="0" speed="3.65" length="3.23" shape="1500.63,1067.37 1499.76,1067.15 1499.41,1066.33 1499.57,1064.90"/>
    </edge>
    <edge id=":196_10" function="internal">
        <lane id=":196_10_0" index="0" speed="9.33" length="18.08" shape="1481.60,1067.99 1485.23,1069.48 1489.03,1069.11 1493.00,1066.90 1497.13,1062.83"/>
    </edge>
    <edge id=":196_11" function="internal">
        <lane id=":196_11_0" index="0" speed="13.89" length="27.67" shape="1481.60,1067.99 1487.66,1071.39 1493.68,1073.42 1500.03,1074.44 1507.06,1074.81"/>
        <lane id=":196_11_1" index="1" speed="13.89" length="27.67" shape="1479.80,1070.64 1486.14,1074.13 1492.75,1076.34 1499.68,1077.55 1506.99,1078.01"/>
    </edge>
    <edge id=":196_13" function="internal">
        <lane id=":196_13_0" index="0" speed="8.88" length="2.98" shape="1479.80,1070.64 1482.01,1072.64"/>
    </edge>
    <edge id=":196_14" function="internal">
        <lane id=":196_14_0" index="0" speed="3.65" length="1.34" shape="1479.80,1070.64 1480.31,1071.88"/>
    </edge>
    <edge id=":196_24" function="internal">
        <lane id=":196_24_0" index="0" speed="8.88" length="19.13" shape="1482.01,1072.64 1484.53,1074.93 1486.18,1079.30 1484.78,1083.75 1480.30,1088.30"/>
    </edge>
    <edge id=":196_25" function="internal">
        <lane id=":196_25_0" index="0" speed="3.65" length="3.34" shape="1480.31,1071.88 1480.35,1071.98 1480.23,1072.86 1479.45,1073.30 1478.01,1073.29"/>
    </edge>
    <edge id=":196_15" function="internal">
        <lane id=":196_15_0" index="0" speed="5.92" length="9.10" shape="1476.42,1083.21 1478.26,1081.34 1478.84,1079.50 1478.16,1077.70 1476.21,1075.94"/>
    </edge>
    <edge id=":196_16" function="internal">
        <lane id=":196_16_0" index="0" speed="13.89" length="29.46" shape="1476.42,1083.21 1482.10,1078.54 1487.33,1073.61 1492.29,1068.39 1497.13,1062.83"/>
        <lane id=":196_16_1" index="1" speed="13.89" length="29.46" shape="1478.36,1085.75 1484.12,1081.01 1489.53,1075.91 1494.65,1070.53 1499.57,1064.90"/>
    </edge>
    <edge id=":196_18" function="internal">
        <lane id=":196_18_0" index="0" speed="13.89" length="4.58" shape="1478.36,1085.75 1482.30,1083.42"/>
    </edge>
    <edge id=":196_19" function="internal">
        <lane id=":196_19_0" index="0" speed="3.65" length="1.44" shape="1478.36,1085.75 1479.80,1085.66"/>
    </edge>
    <edge id=":196_26" function="internal">
        <lane id=":196_26_0" index="0" speed="13.89" length="25.60" shape="1482.30,1083.42 1484.78,1081.95 1491.90,1079.52 1499.41,1078.27 1506.99,1078.01"/>
    </edge>
    <edge id=":196_27" function="internal">
        <lane id=":196_27_0" index="0" speed="3.65" length="3.23" shape="1479.80,1085.66 1480.60,1086.05 1480.77,1086.93 1480.30,1088.30"/>
    </edge>
    <edge id=":2_0" function="internal">
        <lane id=":2_0_0" index="0" speed="13.89" length="0.58" shape="729.93,978.57 729.91,978.48 729.89,978.43 729.87,978.37 729.84,978.29"/>
        <lane id=":2_0_1" index="1" speed="13.89" length="0.58" shape="733.04,977.82 732.98,977.57 732.93,977.40 732.86,977.23 732.76,977.00"/>
    </edge>
    <edge id=":2_2" function="internal">
        <lane id=":2_2_0" index="0" speed="3.65" length="1.44" shape="733.04,977.82 733.54,976.47"/>
    </edge>
    <edge id=":2_6" function="internal">
        <lane id=":2_6_0" index="0" speed="3.65" length="3.23" shape="733.54,976.47 734.22,975.89 735.09,976.09 736.15,977.07"/>
    </edge>
    <edge id=":2_3" function="internal">
        <lane id=":2_3_0" index="0" speed="13.89" length="1.74" shape="738.61,974.40 738.85,974.96 739.00,975.34 739.12,975.74 739.26,976.33"/>
        <lane id=":2_3_1" index="1" speed="13.89" length="1.74" shape="735.69,975.70 735.86,976.09 735.97,976.37 736.05,976.65 736.15,977.07"/>
    </edge>
    <edge id=":2_5" function="internal">
        <lane id=":2_5_0" index="0" speed="3.65" length="1.44" shape="735.69,975.70 735.44,977.12"/>
    </edge>
    <edge id=":2_7" function="internal">
        <lane id=":2_7_0" index="0" speed="3.65" length="3.23" shape="735.44,977.12 734.87,977.81 733.98,977.77 732.76,977.00"/>
    </edge>
    <edge id=":204_0" function="internal">
        <lane id=":204_0_0" index="0" speed="8.07" length="9.75" shape="291.12,909.01 289.17,907.95 286.98,907.63 284.57,908.02 281.92,909.13"/>
    </edge>
    <edge id=":204_1" function="internal">
        <lane id=":204_1_0" index="0" speed="13.89" length="18.56" shape="291.12,909.01 286.70,905.40 284.05,902.44 282.14,898.92 279.95,893.62"/>
        <lane id=":204_1_1" index="1" speed="13.89" length="18.56" shape="293.07,906.47 289.04,903.17 286.64,900.47 284.91,897.26 282.92,892.41"/>
    </edge>
    <edge id=":204_3" function="internal">
        <lane id=":204_3_0" index="0" speed="3.65" length="1.44" shape="293.07,906.47 292.61,905.10"/>
    </edge>
    <edge id=":204_11" function="internal">
        <lane id=":204_11_0" index="0" speed="3.65" length="3.23" shape="292.61,905.10 292.78,904.22 293.58,903.83 295.02,903.93"/>
    </edge>
    <edge id=":204_4" function="internal">
        <lane id=":204_4_0" index="0" speed="13.89" length="15.14" shape="288.85,890.01 290.45,893.92 291.82,896.53 293.73,898.73 296.97,901.39"/>
        <lane id=":204_4_1" index="1" speed="13.89" length="15.14" shape="285.88,891.21 287.68,895.59 289.23,898.50 291.39,900.95 295.02,903.93"/>
    </edge>
    <edge id=":204_6" function="internal">
        <lane id=":204_6_0" index="0" speed="9.29" length="4.84" shape="285.88,891.21 287.06,895.91"/>
    </edge>
    <edge id=":204_7" function="internal">
        <lane id=":204_7_0" index="0" speed="3.65" length="1.44" shape="285.88,891.21 285.59,892.62"/>
    </edge>
    <edge id=":204_12" function="internal">
        <lane id=":204_12_0" index="0" speed="9.29" length="13.08" shape="287.06,895.91 286.55,899.99 284.33,903.46 280.41,906.31"/>
    </edge>
    <edge id=":204_13" function="internal">
        <lane id=":204_13_0" index="0" speed="3.65" length="3.23" shape="285.59,892.62 285.00,893.30 284.11,893.23 282.92,892.41"/>
    </edge>
    <edge id=":204_8" function="internal">
        <lane id=":204_8_0" index="0" speed="6.53" length="8.36" shape="277.40,900.66 279.23,899.33 280.26,897.72 280.50,895.81 279.95,893.62"/>
    </edge>
    <edge id=":204_9" function="internal">
        <lane id=":204_9_0" index="0" speed="10.53" length="17.11" shape="278.90,903.49 283.35,901.68 287.52,901.15 291.41,901.90 295.02,903.93"/>
    </edge>
    <edge id=":204_10" function="internal">
        <lane id=":204_10_0" index="0" speed="3.65" length="4.67" shape="278.90,903.49 280.34,903.63 281.07,904.15 281.09,905.04 280.41,906.31"/>
    </edge>
    <edge id=":22_0" function="internal">
        <lane id=":22_0_0" index="0" speed="8.72" length="12.54" shape="753.45,1730.35 749.38,1730.43 746.18,1731.15 743.87,1732.53 742.42,1734.57"/>
    </edge>
    <edge id=":22_1" function="internal">
        <lane id=":22_1_0" index="0" speed="8.92" length="21.59" shape="753.63,1727.16 747.58,1725.95 743.92,1723.12 742.66,1718.67 743.78,1712.60"/>
    </edge>
    <edge id=":22_2" function="internal">
        <lane id=":22_2_0" index="0" speed="3.65" length="4.67" shape="753.63,1727.16 752.48,1726.29 752.12,1725.47 752.57,1724.69 753.81,1723.96"/>
    </edge>
    <edge id=":22_3" function="internal">
        <lane id=":22_3_0" index="0" speed="6.00" length="9.08" shape="749.84,1714.65 749.37,1717.20 749.90,1719.07 751.44,1720.26 753.99,1720.77"/>
    </edge>
    <edge id=":22_4" function="internal">
        <lane id=":22_4_0" index="0" speed="13.89" length="21.13" shape="749.84,1714.65 742.42,1734.57"/>
        <lane id=":22_4_1" index="1" speed="13.89" length="21.13" shape="746.81,1713.62 739.48,1733.31"/>
    </edge>
    <edge id=":22_6" function="internal">
        <lane id=":22_6_0" index="0" speed="3.65" length="1.44" shape="746.81,1713.62 745.67,1714.51"/>
    </edge>
    <edge id=":22_11" function="internal">
        <lane id=":22_11_0" index="0" speed="3.65" length="3.23" shape="745.67,1714.51 744.78,1714.63 744.15,1713.99 743.78,1712.60"/>
    </edge>
    <edge id=":22_7" function="internal">
        <lane id=":22_7_0" index="0" speed="13.89" length="20.64" shape="733.59,1730.81 740.75,1711.58"/>
        <lane id=":22_7_1" index="1" speed="13.89" length="20.64" shape="736.53,1732.06 743.78,1712.60"/>
    </edge>
    <edge id=":22_9" function="internal">
        <lane id=":22_9_0" index="0" speed="10.99" length="3.28" shape="736.53,1732.06 738.33,1729.31"/>
    </edge>
    <edge id=":22_10" function="internal">
        <lane id=":22_10_0" index="0" speed="3.65" length="1.44" shape="736.53,1732.06 737.74,1731.27"/>
    </edge>
    <edge id=":22_12" function="internal">
        <lane id=":22_12_0" index="0" speed="10.99" length="17.11" shape="738.33,1729.31 739.02,1728.24 742.73,1725.61 747.66,1724.19 753.81,1723.96"/>
    </edge>
    <edge id=":22_13" function="internal">
        <lane id=":22_13_0" index="0" speed="3.65" length="3.23" shape="737.74,1731.27 738.63,1731.22 739.21,1731.90 739.48,1733.31"/>
    </edge>
    <edge id=":222_0" function="internal">
        <lane id=":222_0_0" index="0" speed="13.89" length="21.24" shape="322.70,1250.72 307.35,1265.35"/>
        <lane id=":222_0_1" index="1" speed="13.89" length="21.24" shape="320.52,1248.38 305.12,1263.05"/>
    </edge>
    <edge id=":222_2" function="internal">
        <lane id=":222_2_0" index="0" speed="10.91" length="3.80" shape="320.52,1248.38 317.32,1250.43"/>
    </edge>
    <edge id=":222_3" function="internal">