<configuration xmlns:xsi="http://www.w3.org/2001/XMLSchema-instance" xsi:noNamespaceSchemaLocation="http://sumo.dlr.de/xsd/sumoConfiguration.xsd">
    <input>
        <net-file value="2LaneNetwork.net.xml"/>
        <route-files value="2LaneRoute.rou.xml"/>
        <additional-files value="rerouter.add.xml"/>
    </input>
    
    <gui-settings-file value="view.settings.xml"/>
</configuration>
