<?xml version="1.0" encoding="UTF-8"?>

<!-- generated on 2024-12-13 12:52:35 by Eclipse SUMO GUI Version 1.21.0
-->

<sumoConfiguration xmlns:xsi="http://www.w3.org/2001/XMLSchema-instance" xsi:noNamespaceSchemaLocation="http://sumo.dlr.de/xsd/sumoConfiguration.xsd">

    <input>
        <net-file value="basemap.net.xml"/>
        <route-files value="random_routes.rou.xml"/>
        <additional-files value="basemap.add.xml"/>
    </input>

    <traci_server>
        <remote-port value="3131"/>
    </traci_server>

</sumoConfiguration>
