<?xml version="1.0" encoding="UTF-8"?>

<!-- generated on 2024-12-09 17:21:13 by Eclipse SUMO sumo Version 1.21.0
-->

<sumoConfiguration xmlns:xsi="http://www.w3.org/2001/XMLSchema-instance" xsi:noNamespaceSchemaLocation="http://sumo.dlr.de/xsd/sumoConfiguration.xsd">

    <input>
        <net-file value="basemap.net.xml"/>
        <route-files value="basemap.rou.xml"/>
        <additional-files value="basemap.add.xml"/>
    </input>

</sumoConfiguration>
